$ Spice netlist generated by v2lvs
$ v2020.1_25.14    Mon Feb 3 16:40:08 PST 2020
*.BUSDELIMITER [ 

.SUBCKT datapath__0_13 M_multiplied p_0[22] p_0[21] p_0[20] p_0[19] p_0[18] 
+ p_0[17] p_0[16] p_0[15] p_0[14] p_0[13] p_0[12] p_0[11] p_0[10] p_0[9] p_0[8] 
+ p_0[7] p_0[6] p_0[5] p_0[4] p_0[3] p_0[2] p_0[1] p_0[0] M_resultTruncated[22] 
+ M_resultTruncated[21] M_resultTruncated[20] M_resultTruncated[19] 
+ M_resultTruncated[18] M_resultTruncated[17] M_resultTruncated[16] 
+ M_resultTruncated[15] M_resultTruncated[14] M_resultTruncated[13] 
+ M_resultTruncated[12] M_resultTruncated[11] M_resultTruncated[10] 
+ M_resultTruncated[9] M_resultTruncated[8] M_resultTruncated[7] 
+ M_resultTruncated[6] M_resultTruncated[5] M_resultTruncated[4] 
+ M_resultTruncated[3] M_resultTruncated[2] M_resultTruncated[1] 
+ M_resultTruncated[0] 
Xi_22 XOR2_X1 $PINS Z=M_resultTruncated[22] A=p_0[22] B=n_21 
Xi_21 HA_X1 $PINS CO=n_21 S=M_resultTruncated[21] A=p_0[21] B=n_20 
Xi_20 HA_X1 $PINS CO=n_20 S=M_resultTruncated[20] A=p_0[20] B=n_19 
Xi_19 HA_X1 $PINS CO=n_19 S=M_resultTruncated[19] A=p_0[19] B=n_18 
Xi_18 HA_X1 $PINS CO=n_18 S=M_resultTruncated[18] A=p_0[18] B=n_17 
Xi_17 HA_X1 $PINS CO=n_17 S=M_resultTruncated[17] A=p_0[17] B=n_16 
Xi_16 HA_X1 $PINS CO=n_16 S=M_resultTruncated[16] A=p_0[16] B=n_15 
Xi_15 HA_X1 $PINS CO=n_15 S=M_resultTruncated[15] A=p_0[15] B=n_14 
Xi_14 HA_X1 $PINS CO=n_14 S=M_resultTruncated[14] A=p_0[14] B=n_13 
Xi_13 HA_X1 $PINS CO=n_13 S=M_resultTruncated[13] A=p_0[13] B=n_12 
Xi_12 HA_X1 $PINS CO=n_12 S=M_resultTruncated[12] A=p_0[12] B=n_11 
Xi_11 HA_X1 $PINS CO=n_11 S=M_resultTruncated[11] A=p_0[11] B=n_10 
Xi_10 HA_X1 $PINS CO=n_10 S=M_resultTruncated[10] A=p_0[10] B=n_9 
Xi_9 HA_X1 $PINS CO=n_9 S=M_resultTruncated[9] A=p_0[9] B=n_8 
Xi_8 HA_X1 $PINS CO=n_8 S=M_resultTruncated[8] A=p_0[8] B=n_7 
Xi_7 HA_X1 $PINS CO=n_7 S=M_resultTruncated[7] A=p_0[7] B=n_6 
Xi_6 HA_X1 $PINS CO=n_6 S=M_resultTruncated[6] A=p_0[6] B=n_5 
Xi_5 HA_X1 $PINS CO=n_5 S=M_resultTruncated[5] A=p_0[5] B=n_4 
Xi_4 HA_X1 $PINS CO=n_4 S=M_resultTruncated[4] A=p_0[4] B=n_3 
Xi_3 HA_X1 $PINS CO=n_3 S=M_resultTruncated[3] A=p_0[3] B=n_2 
Xi_2 HA_X1 $PINS CO=n_2 S=M_resultTruncated[2] A=p_0[2] B=n_1 
Xi_1 HA_X1 $PINS CO=n_1 S=M_resultTruncated[1] A=p_0[1] B=n_0 
Xi_0 HA_X1 $PINS CO=n_0 S=M_resultTruncated[0] A=M_multiplied B=p_0[0] 
.ENDS

.SUBCKT datapath__0_2 B_imm[31] B_imm[30] B_imm[29] B_imm[28] B_imm[27] 
+ B_imm[26] B_imm[25] B_imm[24] B_imm[23] B_imm[22] B_imm[21] B_imm[20] 
+ B_imm[19] B_imm[18] B_imm[17] B_imm[16] B_imm[15] B_imm[14] B_imm[13] 
+ B_imm[12] B_imm[11] B_imm[10] B_imm[9] B_imm[8] B_imm[7] B_imm[6] B_imm[5] 
+ B_imm[4] B_imm[3] B_imm[2] B_imm[1] B_imm[0] A_imm[31] A_imm[30] A_imm[29] 
+ A_imm[28] A_imm[27] A_imm[26] A_imm[25] A_imm[24] A_imm[23] A_imm[22] 
+ A_imm[21] A_imm[20] A_imm[19] A_imm[18] A_imm[17] A_imm[16] A_imm[15] 
+ A_imm[14] A_imm[13] A_imm[12] A_imm[11] A_imm[10] A_imm[9] A_imm[8] A_imm[7] 
+ A_imm[6] A_imm[5] A_imm[4] A_imm[3] A_imm[2] A_imm[1] A_imm[0] Res_imm[63] 
+ Res_imm[62] Res_imm[61] Res_imm[60] Res_imm[59] Res_imm[58] Res_imm[57] 
+ Res_imm[56] Res_imm[55] Res_imm[54] Res_imm[53] Res_imm[52] Res_imm[51] 
+ Res_imm[50] Res_imm[49] Res_imm[48] Res_imm[47] Res_imm[46] Res_imm[45] 
+ Res_imm[44] Res_imm[43] Res_imm[42] Res_imm[41] Res_imm[40] Res_imm[39] 
+ Res_imm[38] Res_imm[37] Res_imm[36] Res_imm[35] Res_imm[34] Res_imm[33] 
+ Res_imm[32] Res_imm[31] Res_imm[30] Res_imm[29] Res_imm[28] Res_imm[27] 
+ Res_imm[26] Res_imm[25] Res_imm[24] Res_imm[23] Res_imm[22] Res_imm[21] 
+ Res_imm[20] Res_imm[19] Res_imm[18] Res_imm[17] Res_imm[16] Res_imm[15] 
+ Res_imm[14] Res_imm[13] Res_imm[12] Res_imm[11] Res_imm[10] Res_imm[9] 
+ Res_imm[8] Res_imm[7] Res_imm[6] Res_imm[5] Res_imm[4] Res_imm[3] Res_imm[2] 
+ Res_imm[1] Res_imm[0] 
Xi_1340 INV_X1 $PINS ZN=n_1821 A=n_1812 
Xi_1339 INV_X1 $PINS ZN=n_1820 A=n_1798 
Xi_1338 INV_X1 $PINS ZN=n_1819 A=n_1795 
Xi_1337 OAI21_X1 $PINS ZN=n_1818 A=n_1802 B1=n_1792 B2=n_1794 
Xi_1336 OAI211_X1 $PINS ZN=n_1817 A=n_1786 B=n_1805 C1=n_1803 C2=n_1787 
Xi_1335 INV_X1 $PINS ZN=n_1816 A=n_1817 
Xi_1334 OAI221_X1 $PINS ZN=n_1815 A=n_1820 B1=n_1797 B2=n_1799 C1=n_1818 
+ C2=n_1816 
Xi_1333 AOI22_X1 $PINS ZN=n_1814 A1=n_1812 A2=n_1819 B1=n_1821 B2=n_1795 
Xi_1332 XNOR2_X1 $PINS ZN=Res_imm[45] A=n_1815 B=n_1814 
Xi_1331 NOR2_X1 $PINS ZN=n_1012 A1=hfn_ipo_n6 A2=n_1653 
Xi_1330 NOR2_X1 $PINS ZN=n_1035 A1=hfn_ipo_n6 A2=n_1678 
Xi_1329 FA_X1 $PINS CO=n_1813 S=n_1812 A=n_1012 B=n_1035 CI=n_1793 
Xi_1328 INV_X1 $PINS ZN=n_1811 A=n_1799 
Xi_1327 NOR2_X1 $PINS ZN=n_1810 A1=n_1806 A2=n_1801 
Xi_1326 XOR2_X1 $PINS Z=Res_imm[44] A=n_1808 B=n_1809 
Xi_1325 NOR2_X1 $PINS ZN=n_1809 A1=n_1798 A2=n_1797 
Xi_1324 NAND2_X1 $PINS ZN=n_1808 A1=n_1807 A2=n_1799 
Xi_1323 OAI21_X1 $PINS ZN=n_1807 A=n_1802 B1=n_1804 B2=n_1806 
Xi_1322 INV_X1 $PINS ZN=n_1806 A=n_1805 
Xi_1321 NAND2_X1 $PINS ZN=n_1805 A1=n_1796 A2=n_1784 
Xi_1320 AOI21_X1 $PINS ZN=n_1804 A=n_1803 B1=n_1787 B2=n_1786 
Xi_1319 NOR2_X1 $PINS ZN=n_1803 A1=n_1685 A2=n_1783 
Xi_1318 NOR2_X1 $PINS ZN=n_1802 A1=n_1801 A2=n_1800 
Xi_1317 NOR2_X1 $PINS ZN=n_1801 A1=n_1796 A2=n_1784 
Xi_1316 NOR2_X1 $PINS ZN=n_1800 A1=n_1004 A2=n_999 
Xi_1315 NAND2_X1 $PINS ZN=n_1799 A1=n_1004 A2=n_999 
Xi_1314 AND2_X1 $PINS ZN=n_1798 A1=n_1792 A2=n_1794 
Xi_1313 NOR2_X1 $PINS ZN=n_1797 A1=n_1792 A2=n_1794 
Xi_1312 NOR2_X1 $PINS ZN=n_1014 A1=hfn_ipo_n6 A2=n_1651 
Xi_1311 NOR2_X1 $PINS ZN=n_1037 A1=n_1678 A2=n_1652 
Xi_1310 NOR2_X1 $PINS ZN=n_1060 A1=n_1677 A2=n_1653 
Xi_1309 NOR2_X1 $PINS ZN=n_1083 A1=n_1676 A2=hfn_ipo_n6 
Xi_1308 NOR2_X1 $PINS ZN=n_1015 A1=n_1650 A2=hfn_ipo_n6 
Xi_1307 NOR2_X1 $PINS ZN=n_1038 A1=n_1678 A2=n_1651 
Xi_1306 NOR2_X1 $PINS ZN=n_1061 A1=n_1677 A2=n_1652 
Xi_1305 NOR2_X1 $PINS ZN=n_1084 A1=n_1676 A2=n_1653 
Xi_1304 NOR2_X1 $PINS ZN=n_1107 A1=n_1675 A2=hfn_ipo_n6 
Xi_1303 NOR2_X1 $PINS ZN=n_1013 A1=n_1652 A2=hfn_ipo_n6 
Xi_1302 NOR2_X1 $PINS ZN=n_1036 A1=n_1653 A2=n_1678 
Xi_1301 NOR2_X1 $PINS ZN=n_1059 A1=n_1677 A2=hfn_ipo_n6 
Xi_1300 FA_X1 $PINS CO=n_999 S=n_1796 A=n_1781 B=n_1782 CI=n_996 
Xi_1299 FA_X1 $PINS CO=n_1795 S=n_1794 A=n_1001 B=n_1006 CI=n_1003 
Xi_1298 FA_X1 $PINS CO=n_1793 S=n_1006 A=n_1013 B=n_1036 CI=n_1059 
Xi_1297 FA_X1 $PINS CO=n_1792 S=n_1004 A=n_1000 B=n_1002 CI=n_997 
Xi_1296 FA_X1 $PINS CO=n_997 S=n_996 A=n_1780 B=n_994 CI=n_992 
Xi_1295 FA_X1 $PINS CO=n_1003 S=n_1002 A=n_1083 B=n_993 CI=n_995 
Xi_1294 FA_X1 $PINS CO=n_995 S=n_994 A=n_1084 B=n_1107 CI=n_1779 
Xi_1293 FA_X1 $PINS CO=n_993 S=n_992 A=n_1015 B=n_1038 CI=n_1061 
Xi_1292 FA_X1 $PINS CO=n_1001 S=n_1000 A=n_1014 B=n_1037 CI=n_1060 
Xi_1291 NOR2_X1 $PINS ZN=n_1791 A1=n_1687 A2=n_1679 
Xi_1290 NOR2_X1 $PINS ZN=n_1790 A1=n_1774 A2=n_1771 
Xi_1289 NOR3_X1 $PINS ZN=n_1789 A1=n_1774 A2=n_1791 A3=n_1769 
Xi_1288 OAI211_X2 $PINS ZN=n_1788 A=n_1719 B=n_1768 C1=n_1766 C2=n_1720 
Xi_1287 AOI211_X2 $PINS ZN=n_1787 A=n_1772 B=n_1790 C1=n_1789 C2=n_1788 
Xi_1286 NAND2_X1 $PINS ZN=n_1786 A1=n_1783 A2=n_1685 
Xi_1285 OAI21_X1 $PINS ZN=n_1785 A=n_1786 B1=n_1783 B2=n_1685 
Xi_1284 XOR2_X1 $PINS Z=Res_imm[41] A=n_1787 B=n_1785 
Xi_1283 NOR2_X1 $PINS ZN=n_1085 A1=n_1676 A2=n_1652 
Xi_1282 NOR2_X1 $PINS ZN=n_1108 A1=n_1675 A2=n_1653 
Xi_1281 NOR2_X1 $PINS ZN=n_1131 A1=n_1674 A2=hfn_ipo_n6 
Xi_1280 NOR2_X1 $PINS ZN=n_1016 A1=hfn_ipo_n6 A2=n_1649 
Xi_1279 NOR2_X1 $PINS ZN=n_1039 A1=n_1678 A2=n_1650 
Xi_1278 NOR2_X1 $PINS ZN=n_1062 A1=n_1677 A2=n_1651 
Xi_1277 FA_X1 $PINS CO=n_1784 S=n_1783 A=n_1682 B=n_1684 CI=n_988 
Xi_1276 FA_X1 $PINS CO=n_1782 S=n_988 A=n_984 B=n_982 CI=n_986 
Xi_1275 FA_X1 $PINS CO=n_1781 S=n_986 A=n_1680 B=n_1681 CI=n_1683 
Xi_1274 FA_X1 $PINS CO=n_1780 S=n_982 A=n_1016 B=n_1039 CI=n_1062 
Xi_1273 FA_X1 $PINS CO=n_1779 S=n_984 A=n_1085 B=n_1108 CI=n_1131 
Xi_1272 INV_X1 $PINS ZN=n_1778 A=n_1701 
Xi_1271 INV_X1 $PINS ZN=n_1777 A=n_1705 
Xi_1270 INV_X1 $PINS ZN=n_1776 A=n_769 
Xi_1269 INV_X1 $PINS ZN=n_1775 A=n_761 
Xi_1268 NOR2_X1 $PINS ZN=n_1774 A1=n_969 A2=n_980 
Xi_1267 AND2_X1 $PINS ZN=n_1772 A1=n_969 A2=n_980 
Xi_1266 NAND2_X1 $PINS ZN=n_1771 A1=n_1679 A2=n_1687 
Xi_1265 INV_X1 $PINS ZN=n_1770 A=n_1771 
Xi_1264 NOR2_X1 $PINS ZN=n_1769 A1=n_1686 A2=n_1693 
Xi_1263 NAND2_X1 $PINS ZN=n_1768 A1=n_1686 A2=n_1693 
Xi_1262 NOR2_X1 $PINS ZN=n_1766 A1=n_1692 A2=n_1694 
Xi_1261 NAND2_X1 $PINS ZN=n_1764 A1=n_920 A2=n_901 
Xi_1260 INV_X1 $PINS ZN=n_1762 A=n_1764 
Xi_1259 NOR2_X1 $PINS ZN=n_1761 A1=n_920 A2=n_901 
Xi_1258 NAND2_X1 $PINS ZN=n_1760 A1=n_1695 A2=n_1697 
Xi_1257 NOR2_X1 $PINS ZN=n_1759 A1=n_1695 A2=n_1697 
Xi_1256 NOR2_X1 $PINS ZN=n_1758 A1=n_1696 A2=n_1699 
Xi_1255 NAND2_X1 $PINS ZN=n_1755 A1=n_1698 A2=n_1703 
Xi_1254 NAND2_X1 $PINS ZN=n_1754 A1=n_1696 A2=n_1699 
Xi_1253 NOR2_X1 $PINS ZN=n_1753 A1=n_1698 A2=n_1703 
Xi_1252 NAND2_X1 $PINS ZN=n_1752 A1=n_1704 A2=n_1707 
Xi_1251 AND2_X1 $PINS ZN=n_1751 A1=n_1712 A2=n_168 
Xi_1250 AOI21_X1 $PINS ZN=n_1746 A=n_768 B1=n_760 B2=n_758 
Xi_1249 AOI221_X1 $PINS ZN=n_1745 A=n_1746 B1=n_1708 B2=n_1713 C1=n_1776 
+ C2=n_1751 
Xi_1248 AND2_X1 $PINS ZN=n_1744 A1=n_1706 A2=n_1711 
Xi_1247 NOR2_X1 $PINS ZN=n_1743 A1=n_768 A2=n_764 
Xi_1246 INV_X1 $PINS ZN=n_1742 A=n_1743 
Xi_1245 OAI21_X1 $PINS ZN=n_1741 A=n_762 B1=n_1586 B2=n_1585 
Xi_1244 AOI21_X1 $PINS ZN=n_1740 A=n_1741 B1=n_775 B2=n_900 
Xi_1243 INV_X1 $PINS ZN=n_1739 A=n_1740 
Xi_1242 NAND2_X1 $PINS ZN=n_1738 A1=n_1536 A2=n_771 
Xi_1241 NOR2_X1 $PINS ZN=n_1737 A1=n_1701 A2=n_1705 
Xi_1240 NOR2_X1 $PINS ZN=n_1736 A1=n_1709 A2=n_1710 
Xi_1239 AOI21_X2 $PINS ZN=n_1735 A=n_1738 B1=n_979 B2=n_987 
Xi_1238 OAI21_X1 $PINS ZN=n_1734 A=n_1743 B1=n_1739 B2=n_1735 
Xi_1237 AOI21_X1 $PINS ZN=n_1733 A=n_1736 B1=n_1745 B2=n_1734 
Xi_1236 NOR3_X1 $PINS ZN=n_1732 A1=n_1775 A2=n_1744 A3=n_1733 
Xi_1235 OR3_X2 $PINS ZN=n_1731 A1=n_770 A2=n_1737 A3=n_1732 
Xi_1234 OAI221_X2 $PINS ZN=n_1730 A=n_1731 B1=n_1778 B2=n_1777 C1=n_1752 
+ C2=n_1737 
Xi_1233 INV_X1 $PINS ZN=n_1729 A=n_1730 
Xi_1232 OR3_X1 $PINS ZN=n_1728 A1=n_1761 A2=n_1758 A3=n_1759 
Xi_1231 NOR2_X1 $PINS ZN=n_1727 A1=n_1753 A2=n_1728 
Xi_1230 AND2_X1 $PINS ZN=n_1726 A1=n_1755 A2=n_1754 
Xi_1229 OAI221_X1 $PINS ZN=n_1725 A=n_1764 B1=n_1761 B2=n_1760 C1=n_1728 
+ C2=n_1726 
Xi_1228 AOI21_X4 $PINS ZN=n_1720 A=n_1725 B1=n_1730 B2=n_1727 
Xi_1227 NAND2_X1 $PINS ZN=n_1719 A1=n_1692 A2=n_1694 
Xi_1226 AOI21_X1 $PINS ZN=n_1718 A=n_1766 B1=n_1720 B2=n_1719 
Xi_1225 INV_X1 $PINS ZN=n_1717 A=n_1718 
Xi_1224 AOI21_X1 $PINS ZN=n_1716 A=n_1769 B1=n_1768 B2=n_1717 
Xi_1223 OR2_X1 $PINS ZN=n_1715 A1=n_1774 A2=n_1772 
Xi_1222 OAI22_X1 $PINS ZN=n_1714 A1=n_1679 A2=n_1687 B1=n_1770 B2=n_1716 
Xi_1221 XOR2_X2 $PINS Z=Res_imm[40] A=n_1715 B=n_1714 
Xi_1220 NOR2_X1 $PINS ZN=n_1156 A1=n_1673 A2=n_1653 
Xi_1219 NOR2_X1 $PINS ZN=n_1179 A1=n_1672 A2=hfn_ipo_n6 
Xi_1218 NOR2_X1 $PINS ZN=n_1157 A1=n_1673 A2=n_1652 
Xi_1217 NOR2_X1 $PINS ZN=n_1180 A1=n_1653 A2=n_1672 
Xi_1216 NOR2_X1 $PINS ZN=n_1203 A1=hfn_ipo_n6 A2=n_1670 
Xi_1215 NOR2_X1 $PINS ZN=n_1087 A1=n_1676 A2=n_1650 
Xi_1214 NOR2_X1 $PINS ZN=n_1110 A1=n_1675 A2=n_1651 
Xi_1213 NOR2_X1 $PINS ZN=n_1133 A1=n_1652 A2=n_1674 
Xi_1212 NOR2_X1 $PINS ZN=n_1018 A1=hfn_ipo_n6 A2=n_1647 
Xi_1211 NOR2_X1 $PINS ZN=n_1041 A1=n_1678 A2=n_1648 
Xi_1210 NOR2_X1 $PINS ZN=n_1064 A1=n_1677 A2=n_1649 
Xi_1209 NOR2_X1 $PINS ZN=n_1088 A1=n_1676 A2=n_1649 
Xi_1208 NOR2_X1 $PINS ZN=n_1111 A1=n_1650 A2=n_1675 
Xi_1207 NOR2_X1 $PINS ZN=n_1134 A1=n_1651 A2=n_1674 
Xi_1206 NOR2_X1 $PINS ZN=n_1019 A1=hfn_ipo_n6 A2=n_1646 
Xi_1205 NOR2_X1 $PINS ZN=n_1042 A1=n_1647 A2=n_1678 
Xi_1204 NOR2_X1 $PINS ZN=n_1065 A1=n_1648 A2=n_1677 
Xi_1203 NOR2_X1 $PINS ZN=n_1158 A1=n_1673 A2=n_1651 
Xi_1202 NOR2_X1 $PINS ZN=n_1181 A1=n_1672 A2=n_1652 
Xi_1201 NOR2_X1 $PINS ZN=n_1204 A1=n_1653 A2=n_1670 
Xi_1200 NOR2_X1 $PINS ZN=n_1089 A1=n_1676 A2=n_1648 
Xi_1199 NOR2_X1 $PINS ZN=n_1112 A1=n_1675 A2=n_1649 
Xi_1198 NOR2_X1 $PINS ZN=n_1135 A1=n_1650 A2=n_1674 
Xi_1197 NOR2_X1 $PINS ZN=n_1020 A1=hfn_ipo_n6 A2=n_1645 
Xi_1196 NOR2_X1 $PINS ZN=n_1043 A1=n_1678 A2=n_1646 
Xi_1195 NOR2_X1 $PINS ZN=n_1066 A1=n_1647 A2=n_1677 
Xi_1194 NOR2_X1 $PINS ZN=n_1227 A1=hfn_ipo_n6 A2=n_1669 
Xi_1193 NOR2_X1 $PINS ZN=n_1159 A1=n_1673 A2=n_1650 
Xi_1192 NOR2_X1 $PINS ZN=n_1182 A1=n_1672 A2=n_1651 
Xi_1191 NOR2_X1 $PINS ZN=n_1205 A1=n_1652 A2=n_1670 
Xi_1190 NOR2_X1 $PINS ZN=n_1090 A1=n_1676 A2=n_1647 
Xi_1189 NOR2_X1 $PINS ZN=n_1113 A1=n_1675 A2=n_1648 
Xi_1188 NOR2_X1 $PINS ZN=n_1136 A1=n_1674 A2=n_1649 
Xi_1187 NOR2_X1 $PINS ZN=n_1021 A1=hfn_ipo_n6 A2=n_1644 
Xi_1186 NOR2_X1 $PINS ZN=n_1044 A1=n_1678 A2=n_1645 
Xi_1185 NOR2_X1 $PINS ZN=n_1067 A1=n_1677 A2=n_1646 
Xi_1184 NOR2_X1 $PINS ZN=n_1160 A1=n_1673 A2=n_1649 
Xi_1183 NOR2_X1 $PINS ZN=n_1183 A1=n_1672 A2=n_1650 
Xi_1182 NOR2_X1 $PINS ZN=n_1206 A1=n_1670 A2=n_1651 
Xi_1181 NOR2_X1 $PINS ZN=n_1091 A1=n_1676 A2=n_1646 
Xi_1180 NOR2_X1 $PINS ZN=n_1114 A1=n_1675 A2=n_1647 
Xi_1179 NOR2_X1 $PINS ZN=n_1137 A1=n_1674 A2=n_1648 
Xi_1178 NOR2_X1 $PINS ZN=n_1022 A1=hfn_ipo_n6 A2=n_1643 
Xi_1177 NOR2_X1 $PINS ZN=n_1045 A1=n_1678 A2=n_1644 
Xi_1176 NOR2_X1 $PINS ZN=n_1068 A1=n_1677 A2=n_1645 
Xi_1175 NOR2_X1 $PINS ZN=n_1228 A1=n_1653 A2=n_1669 
Xi_1174 NOR2_X1 $PINS ZN=n_1251 A1=hfn_ipo_n6 A2=n_1668 
Xi_1173 NOR2_X1 $PINS ZN=n_1229 A1=n_1652 A2=n_1669 
Xi_1172 NOR2_X1 $PINS ZN=n_1252 A1=n_1653 A2=n_1668 
Xi_1171 NOR2_X1 $PINS ZN=n_1275 A1=hfn_ipo_n6 A2=n_1667 
Xi_1170 NOR2_X1 $PINS ZN=n_1086 A1=n_1676 A2=n_1651 
Xi_1169 NOR2_X1 $PINS ZN=n_1109 A1=n_1652 A2=n_1675 
Xi_1168 NOR2_X1 $PINS ZN=n_1132 A1=n_1653 A2=n_1674 
Xi_1167 NOR2_X1 $PINS ZN=n_1017 A1=hfn_ipo_n6 A2=n_1648 
Xi_1166 NOR2_X1 $PINS ZN=n_1040 A1=n_1678 A2=n_1649 
Xi_1165 NOR2_X1 $PINS ZN=n_1063 A1=n_1650 A2=n_1677 
Xi_1164 NOR2_X1 $PINS ZN=n_1155 A1=n_1673 A2=hfn_ipo_n6 
Xi_1163 NOR2_X1 $PINS ZN=n_1230 A1=n_1651 A2=n_1669 
Xi_1162 NOR2_X1 $PINS ZN=n_1253 A1=n_1652 A2=n_1668 
Xi_1161 NOR2_X1 $PINS ZN=n_1276 A1=n_1653 A2=n_1667 
Xi_1160 NOR2_X1 $PINS ZN=n_1161 A1=n_1673 A2=n_1648 
Xi_1159 NOR2_X1 $PINS ZN=n_1184 A1=n_1672 A2=n_1649 
Xi_1158 NOR2_X1 $PINS ZN=n_1207 A1=n_1670 A2=n_1650 
Xi_1157 NOR2_X1 $PINS ZN=n_1092 A1=n_1676 A2=n_1645 
Xi_1156 NOR2_X1 $PINS ZN=n_1115 A1=n_1675 A2=n_1646 
Xi_1155 NOR2_X1 $PINS ZN=n_1138 A1=n_1674 A2=n_1647 
Xi_1154 NOR2_X1 $PINS ZN=n_1023 A1=hfn_ipo_n6 A2=n_1642 
Xi_1153 NOR2_X1 $PINS ZN=n_1046 A1=n_1678 A2=n_1643 
Xi_1152 NOR2_X1 $PINS ZN=n_1069 A1=n_1677 A2=n_1644 
Xi_1151 NOR2_X1 $PINS ZN=n_1299 A1=hfn_ipo_n6 A2=n_1666 
Xi_1150 NOR2_X1 $PINS ZN=n_1231 A1=n_1650 A2=n_1669 
Xi_1149 NOR2_X1 $PINS ZN=n_1254 A1=n_1651 A2=n_1668 
Xi_1148 NOR2_X1 $PINS ZN=n_1277 A1=n_1652 A2=n_1667 
Xi_1147 NOR2_X1 $PINS ZN=n_1162 A1=n_1673 A2=n_1647 
Xi_1146 NOR2_X1 $PINS ZN=n_1185 A1=n_1672 A2=n_1648 
Xi_1145 NOR2_X1 $PINS ZN=n_1208 A1=n_1670 A2=n_1649 
Xi_1144 NOR2_X1 $PINS ZN=n_1093 A1=n_1676 A2=n_1644 
Xi_1143 NOR2_X1 $PINS ZN=n_1116 A1=n_1675 A2=n_1645 
Xi_1142 NOR2_X1 $PINS ZN=n_1139 A1=n_1674 A2=n_1646 
Xi_1141 NOR2_X1 $PINS ZN=n_1024 A1=hfn_ipo_n6 A2=n_1641 
Xi_1140 NOR2_X1 $PINS ZN=n_1047 A1=n_1678 A2=n_1642 
Xi_1139 NOR2_X1 $PINS ZN=n_1070 A1=n_1677 A2=n_1643 
Xi_1138 NOR2_X1 $PINS ZN=n_1232 A1=n_1649 A2=n_1669 
Xi_1137 NOR2_X1 $PINS ZN=n_1255 A1=n_1650 A2=n_1668 
Xi_1136 NOR2_X1 $PINS ZN=n_1278 A1=n_1651 A2=n_1667 
Xi_1135 NOR2_X1 $PINS ZN=n_1163 A1=n_1673 A2=n_1646 
Xi_1134 NOR2_X1 $PINS ZN=n_1186 A1=n_1672 A2=n_1647 
Xi_1133 NOR2_X1 $PINS ZN=n_1209 A1=n_1670 A2=n_1648 
Xi_1132 NOR2_X1 $PINS ZN=n_1094 A1=n_1676 A2=n_1643 
Xi_1131 NOR2_X1 $PINS ZN=n_1117 A1=n_1675 A2=n_1644 
Xi_1130 NOR2_X1 $PINS ZN=n_1140 A1=n_1674 A2=n_1645 
Xi_1129 NOR2_X1 $PINS ZN=n_1300 A1=n_1653 A2=n_1666 
Xi_1128 NOR2_X1 $PINS ZN=n_1323 A1=hfn_ipo_n6 A2=n_1665 
Xi_1127 NOR2_X1 $PINS ZN=n_1301 A1=n_1652 A2=n_1666 
Xi_1126 NOR2_X1 $PINS ZN=n_1324 A1=n_1653 A2=n_1665 
Xi_1125 NOR2_X1 $PINS ZN=n_1347 A1=n_1654 A2=n_1664 
Xi_1124 NOR2_X1 $PINS ZN=n_1025 A1=hfn_ipo_n6 A2=n_1640 
Xi_1123 NOR2_X1 $PINS ZN=n_1048 A1=n_1678 A2=n_1641 
Xi_1122 NOR2_X1 $PINS ZN=n_1071 A1=n_1677 A2=n_1642 
Xi_1121 FA_X1 $PINS CO=n_1713 S=n_1712 A=n_169 B=n_167 CI=n_461 
Xi_1120 FA_X1 $PINS CO=n_1711 S=n_1710 A=n_515 B=n_509 CI=n_517 
Xi_1119 FA_X1 $PINS CO=n_1709 S=n_1708 A=n_505 B=n_504 CI=n_507 
Xi_1118 FA_X1 $PINS CO=n_1707 S=n_1706 A=n_766 B=n_519 CI=n_533 
Xi_1117 FA_X1 $PINS CO=n_1705 S=n_1704 A=n_796 B=n_535 CI=n_798 
Xi_1116 FA_X1 $PINS CO=n_1703 S=n_1701 A=n_824 B=n_799 CI=n_826 
Xi_1115 FA_X1 $PINS CO=n_797 S=n_796 A=n_548 B=n_629 CI=n_664 
Xi_1114 FA_X1 $PINS CO=n_799 S=n_798 A=n_765 B=n_794 CI=n_767 
Xi_1113 FA_X1 $PINS CO=n_767 S=n_766 A=n_513 B=n_529 CI=n_525 
Xi_1112 FA_X1 $PINS CO=n_765 S=n_1700 A=n_511 B=n_523 CI=n_521 
Xi_1111 FA_X1 $PINS CO=n_795 S=n_794 A=n_545 B=n_527 CI=n_531 
Xi_1110 FA_X1 $PINS CO=n_1699 S=n_1698 A=n_850 B=n_827 CI=n_852 
Xi_1109 FA_X1 $PINS CO=n_827 S=n_826 A=n_820 B=n_822 CI=n_797 
Xi_1108 FA_X1 $PINS CO=n_1697 S=n_1696 A=n_853 B=n_874 CI=n_876 
Xi_1107 FA_X1 $PINS CO=n_853 S=n_852 A=n_823 B=n_848 CI=n_825 
Xi_1106 FA_X1 $PINS CO=n_825 S=n_824 A=n_818 B=n_816 CI=n_795 
Xi_1105 FA_X1 $PINS CO=n_823 S=n_822 A=n_547 B=n_666 CI=n_631 
Xi_1104 FA_X1 $PINS CO=n_901 S=n_1695 A=n_896 B=n_877 CI=n_898 
Xi_1103 FA_X1 $PINS CO=n_877 S=n_876 A=n_849 B=n_872 CI=n_851 
Xi_1102 FA_X1 $PINS CO=n_851 S=n_850 A=n_821 B=n_844 CI=n_846 
Xi_1101 FA_X1 $PINS CO=n_821 S=n_820 A=n_814 B=n_812 CI=n_549 
Xi_1100 FA_X1 $PINS CO=n_849 S=n_848 A=n_819 B=n_817 CI=n_842 
Xi_1099 FA_X1 $PINS CO=n_817 S=n_816 A=n_541 B=n_810 CI=n_808 
Xi_1098 FA_X1 $PINS CO=n_819 S=n_818 A=n_806 B=n_804 CI=n_802 
Xi_1097 FA_X1 $PINS CO=n_1694 S=n_920 A=n_916 B=n_899 CI=n_918 
Xi_1096 FA_X1 $PINS CO=n_899 S=n_898 A=n_892 B=n_894 CI=n_875 
Xi_1095 FA_X1 $PINS CO=n_875 S=n_874 A=n_847 B=n_870 CI=n_868 
Xi_1094 FA_X1 $PINS CO=n_847 S=n_846 A=n_830 B=n_815 CI=n_840 
Xi_1093 FA_X1 $PINS CO=n_815 S=n_814 A=n_539 B=n_537 CI=n_543 
Xi_1092 FA_X1 $PINS CO=n_1693 S=n_1692 A=n_934 B=n_919 CI=n_936 
Xi_1091 FA_X1 $PINS CO=n_919 S=n_918 A=n_914 B=n_912 CI=n_897 
Xi_1090 FA_X1 $PINS CO=n_897 S=n_896 A=n_890 B=n_873 CI=n_871 
Xi_1089 FA_X1 $PINS CO=n_871 S=n_870 A=n_858 B=n_856 CI=n_866 
Xi_1088 FA_X1 $PINS CO=n_873 S=n_872 A=n_864 B=n_845 CI=n_843 
Xi_1087 FA_X1 $PINS CO=n_843 S=n_842 A=n_803 B=n_813 CI=n_838 
Xi_1086 FA_X1 $PINS CO=n_813 S=n_812 A=n_781 B=n_779 CI=n_777 
Xi_1085 FA_X1 $PINS CO=n_777 S=n_1691 A=n_667 B=n_668 CI=n_669 
Xi_1084 FA_X1 $PINS CO=n_779 S=n_1690 A=n_702 B=n_704 CI=n_729 
Xi_1083 FA_X1 $PINS CO=n_781 S=n_1688 A=n_731 B=n_734 CI=n_736 
Xi_1082 FA_X1 $PINS CO=n_803 S=n_802 A=n_1025 B=n_1048 CI=n_1071 
Xi_1081 FA_X1 $PINS CO=n_845 S=n_844 A=n_836 B=n_834 CI=n_832 
Xi_1080 FA_X1 $PINS CO=n_1687 S=n_1686 A=n_935 B=n_937 CI=n_952 
Xi_1079 FA_X1 $PINS CO=n_937 S=n_936 A=n_915 B=n_932 CI=n_917 
Xi_1078 FA_X1 $PINS CO=n_917 S=n_916 A=n_893 B=n_891 CI=n_895 
Xi_1077 FA_X1 $PINS CO=n_895 S=n_894 A=n_867 B=n_888 CI=n_869 
Xi_1076 FA_X1 $PINS CO=n_869 S=n_868 A=n_839 B=n_862 CI=n_860 
Xi_1075 FA_X1 $PINS CO=n_839 S=n_838 A=n_1300 B=n_1323 CI=n_811 
Xi_1074 FA_X1 $PINS CO=n_811 S=n_810 A=n_1301 B=n_1324 CI=n_1347 
Xi_1073 FA_X1 $PINS CO=n_867 S=n_866 A=n_833 B=n_831 CI=n_841 
Xi_1072 FA_X1 $PINS CO=n_841 S=n_840 A=n_809 B=n_807 CI=n_805 
Xi_1071 FA_X1 $PINS CO=n_805 S=n_804 A=n_1094 B=n_1117 CI=n_1140 
Xi_1070 FA_X1 $PINS CO=n_807 S=n_806 A=n_1163 B=n_1186 CI=n_1209 
Xi_1069 FA_X1 $PINS CO=n_809 S=n_808 A=n_1232 B=n_1255 CI=n_1278 
Xi_1068 FA_X1 $PINS CO=n_831 S=n_830 A=n_1024 B=n_1047 CI=n_1070 
Xi_1065 FA_X1 $PINS CO=n_833 S=n_832 A=n_1093 B=n_1116 CI=n_1139 
Xi_1063 FA_X1 $PINS CO=n_891 S=n_890 A=n_857 B=n_865 CI=n_886 
Xi_1062 FA_X1 $PINS CO=n_865 S=n_864 A=n_1299 B=n_837 CI=n_835 
Xi_1061 FA_X1 $PINS CO=n_835 S=n_834 A=n_1162 B=n_1185 CI=n_1208 
Xi_1060 FA_X1 $PINS CO=n_837 S=n_836 A=n_1231 B=n_1254 CI=n_1277 
Xi_1059 FA_X1 $PINS CO=n_857 S=n_856 A=n_1023 B=n_1046 CI=n_1069 
Xi_1058 FA_X1 $PINS CO=n_893 S=n_892 A=n_884 B=n_882 CI=n_880 
Xi_1057 FA_X1 $PINS CO=n_915 S=n_914 A=n_904 B=n_902 CI=n_910 
Xi_1056 FA_X1 $PINS CO=n_935 S=n_934 A=n_928 B=n_913 CI=n_930 
Xi_1055 FA_X1 $PINS CO=n_913 S=n_912 A=n_889 B=n_908 CI=n_906 
Xi_1054 FA_X1 $PINS CO=n_889 S=n_888 A=n_863 B=n_861 CI=n_859 
Xi_1053 FA_X1 $PINS CO=n_859 S=n_858 A=n_1092 B=n_1115 CI=n_1138 
Xi_1052 FA_X1 $PINS CO=n_861 S=n_860 A=n_1161 B=n_1184 CI=n_1207 
Xi_1051 FA_X1 $PINS CO=n_863 S=n_862 A=n_1230 B=n_1253 CI=n_1276 
Xi_1050 FA_X1 $PINS CO=n_1685 S=n_980 A=n_976 B=n_967 CI=n_978 
Xi_1049 FA_X1 $PINS CO=n_1684 S=n_978 A=n_963 B=n_974 CI=n_965 
Xi_1048 FA_X1 $PINS CO=n_1683 S=n_974 A=n_1155 B=n_959 CI=n_957 
Xi_1047 FA_X1 $PINS CO=n_1682 S=n_976 A=n_961 B=n_972 CI=n_970 
Xi_1045 FA_X1 $PINS CO=n_1681 S=n_970 A=n_1017 B=n_1040 CI=n_1063 
Xi_1044 FA_X1 $PINS CO=n_1680 S=n_972 A=n_1086 B=n_1109 CI=n_1132 
Xi_1042 FA_X1 $PINS CO=n_969 S=n_1679 A=n_964 B=n_966 CI=n_953 
Xi_1041 FA_X1 $PINS CO=n_953 S=n_952 A=n_933 B=n_948 CI=n_950 
Xi_1040 FA_X1 $PINS CO=n_933 S=n_932 A=n_926 B=n_924 CI=n_922 
Xi_1039 FA_X1 $PINS CO=n_967 S=n_966 A=n_962 B=n_949 CI=n_951 
Xi_1038 FA_X1 $PINS CO=n_951 S=n_950 A=n_940 B=n_931 CI=n_946 
Xi_1037 FA_X1 $PINS CO=n_931 S=n_930 A=n_903 B=n_911 CI=n_909 
Xi_1036 FA_X1 $PINS CO=n_909 S=n_908 A=n_1228 B=n_1251 CI=n_887 
Xi_1035 FA_X1 $PINS CO=n_887 S=n_886 A=n_1229 B=n_1252 CI=n_1275 
Xi_1034 FA_X1 $PINS CO=n_911 S=n_910 A=n_885 B=n_883 CI=n_881 
Xi_1033 FA_X1 $PINS CO=n_881 S=n_880 A=n_1022 B=n_1045 CI=n_1068 
Xi_1032 FA_X1 $PINS CO=n_883 S=n_882 A=n_1091 B=n_1114 CI=n_1137 
Xi_1031 FA_X1 $PINS CO=n_885 S=n_884 A=n_1160 B=n_1183 CI=n_1206 
Xi_1030 FA_X1 $PINS CO=n_903 S=n_902 A=n_1021 B=n_1044 CI=n_1067 
Xi_1029 FA_X1 $PINS CO=n_949 S=n_948 A=n_929 B=n_944 CI=n_942 
Xi_1028 FA_X1 $PINS CO=n_929 S=n_928 A=n_1227 B=n_907 CI=n_905 
Xi_1027 FA_X1 $PINS CO=n_905 S=n_904 A=n_1090 B=n_1113 CI=n_1136 
Xi_1026 FA_X1 $PINS CO=n_907 S=n_906 A=n_1159 B=n_1182 CI=n_1205 
Xi_1025 FA_X1 $PINS CO=n_963 S=n_962 A=n_943 B=n_941 CI=n_947 
Xi_1024 FA_X1 $PINS CO=n_947 S=n_946 A=n_927 B=n_925 CI=n_923 
Xi_1022 FA_X1 $PINS CO=n_923 S=n_922 A=n_1020 B=n_1043 CI=n_1066 
Xi_1019 FA_X1 $PINS CO=n_925 S=n_924 A=n_1089 B=n_1112 CI=n_1135 
Xi_1018 FA_X1 $PINS CO=n_927 S=n_926 A=n_1158 B=n_1181 CI=n_1204 
Xi_1017 FA_X1 $PINS CO=n_941 S=n_940 A=n_1019 B=n_1042 CI=n_1065 
Xi_1016 FA_X1 $PINS CO=n_943 S=n_942 A=n_1088 B=n_1111 CI=n_1134 
Xi_1015 FA_X1 $PINS CO=n_965 S=n_964 A=n_960 B=n_958 CI=n_956 
Xi_1014 FA_X1 $PINS CO=n_957 S=n_956 A=n_1018 B=n_1041 CI=n_1064 
Xi_1013 FA_X1 $PINS CO=n_959 S=n_958 A=n_1087 B=n_1110 CI=n_1133 
Xi_1012 FA_X1 $PINS CO=n_961 S=n_960 A=n_1156 B=n_1179 CI=n_945 
Xi_1011 FA_X1 $PINS CO=n_945 S=n_944 A=n_1157 B=n_1180 CI=n_1203 
Xi_1010 INV_X2 $PINS ZN=n_1678 A=B_imm[22] 
Xi_1009 INV_X2 $PINS ZN=n_1677 A=B_imm[21] 
Xi_1008 INV_X2 $PINS ZN=n_1676 A=B_imm[20] 
Xi_1007 INV_X4 $PINS ZN=n_1675 A=B_imm[19] 
Xi_1006 INV_X4 $PINS ZN=n_1674 A=B_imm[18] 
Xi_1005 INV_X4 $PINS ZN=n_1673 A=B_imm[17] 
Xi_1004 INV_X4 $PINS ZN=n_1672 A=B_imm[16] 
Xi_1003 INV_X4 $PINS ZN=n_1670 A=B_imm[15] 
Xi_1002 INV_X4 $PINS ZN=n_1669 A=B_imm[14] 
Xi_1001 INV_X4 $PINS ZN=n_1668 A=B_imm[13] 
Xi_999 INV_X4 $PINS ZN=n_1667 A=B_imm[12] 
Xi_996 INV_X4 $PINS ZN=n_1666 A=B_imm[11] 
Xi_995 INV_X4 $PINS ZN=n_1665 A=B_imm[10] 
Xi_994 INV_X4 $PINS ZN=n_1664 A=B_imm[9] 
Xi_993 INV_X4 $PINS ZN=n_1663 A=B_imm[8] 
Xi_992 INV_X4 $PINS ZN=n_1662 A=B_imm[7] 
Xi_991 INV_X4 $PINS ZN=n_1661 A=B_imm[6] 
Xi_990 INV_X2 $PINS ZN=n_1660 A=B_imm[5] 
Xi_989 INV_X2 $PINS ZN=n_1659 A=B_imm[4] 
Xi_988 INV_X2 $PINS ZN=n_1658 A=B_imm[3] 
Xi_987 INV_X2 $PINS ZN=n_1657 A=B_imm[2] 
Xi_986 INV_X2 $PINS ZN=n_1656 A=B_imm[1] 
Xi_985 INV_X2 $PINS ZN=n_1655 A=B_imm[0] 
Xi_984 INV_X1 $PINS ZN=n_1654 A=A_imm[23] 
Xi_983 INV_X2 $PINS ZN=n_1653 A=A_imm[22] 
Xi_982 INV_X2 $PINS ZN=n_1652 A=A_imm[21] 
Xi_981 INV_X4 $PINS ZN=n_1651 A=A_imm[20] 
Xi_980 INV_X4 $PINS ZN=n_1650 A=A_imm[19] 
Xi_979 INV_X4 $PINS ZN=n_1649 A=A_imm[18] 
Xi_978 INV_X2 $PINS ZN=n_1648 A=A_imm[17] 
Xi_973 INV_X4 $PINS ZN=n_1647 A=A_imm[16] 
Xi_972 INV_X2 $PINS ZN=n_1646 A=A_imm[15] 
Xi_971 INV_X2 $PINS ZN=n_1645 A=A_imm[14] 
Xi_970 INV_X4 $PINS ZN=n_1644 A=A_imm[13] 
Xi_969 INV_X2 $PINS ZN=n_1643 A=A_imm[12] 
Xi_968 INV_X4 $PINS ZN=n_1642 A=A_imm[11] 
Xi_967 INV_X4 $PINS ZN=n_1641 A=A_imm[10] 
Xi_966 INV_X4 $PINS ZN=n_1640 A=A_imm[9] 
Xi_965 INV_X4 $PINS ZN=n_1639 A=A_imm[8] 
Xi_964 INV_X8 $PINS ZN=n_1634 A=A_imm[7] 
Xi_963 INV_X8 $PINS ZN=n_1633 A=A_imm[6] 
Xi_962 INV_X4 $PINS ZN=n_1632 A=A_imm[5] 
Xi_961 INV_X8 $PINS ZN=n_1631 A=A_imm[4] 
Xi_960 INV_X8 $PINS ZN=n_1630 A=A_imm[3] 
Xi_959 INV_X4 $PINS ZN=n_1629 A=A_imm[2] 
Xi_958 INV_X4 $PINS ZN=n_1628 A=A_imm[1] 
Xi_957 INV_X4 $PINS ZN=n_1625 A=A_imm[0] 
Xi_956 INV_X1 $PINS ZN=n_1623 A=n_763 
Xi_955 INV_X1 $PINS ZN=n_1622 A=n_418 
Xi_950 INV_X1 $PINS ZN=n_1621 A=n_340 
Xi_949 INV_X1 $PINS ZN=n_1619 A=n_379 
Xi_948 INV_X1 $PINS ZN=n_1608 A=n_305 
Xi_947 NOR2_X1 $PINS ZN=n_1586 A1=n_775 A2=n_900 
Xi_946 NAND2_X1 $PINS ZN=n_1585 A1=n_773 A2=n_938 
Xi_945 INV_X1 $PINS ZN=n_1584 A=n_1585 
Xi_944 NOR2_X1 $PINS ZN=n_1583 A1=n_460 A2=n_419 
Xi_943 NAND2_X1 $PINS ZN=n_1569 A1=n_460 A2=n_419 
Xi_942 NAND2_X1 $PINS ZN=n_1536 A1=n_1622 A2=n_1619 
Xi_941 NOR2_X1 $PINS ZN=n_1513 A1=n_1622 A2=n_1619 
Xi_940 AOI22_X1 $PINS ZN=n_1490 A1=n_52 A2=n_54 B1=n_38 B2=n_40 
Xi_939 AOI22_X1 $PINS ZN=n_1348 A1=n_16 A2=n_18 B1=n_26 B2=n_28 
Xi_938 AOI21_X1 $PINS ZN=n_1325 A=n_1623 B1=n_954 B2=n_955 
Xi_937 NOR2_X1 $PINS ZN=n_1302 A1=n_16 A2=n_18 
Xi_936 OAI21_X1 $PINS ZN=n_1279 A=n_1348 B1=n_1325 B2=n_1302 
Xi_935 OAI221_X1 $PINS ZN=n_1272 A=n_1279 B1=n_26 B2=n_28 C1=n_38 C2=n_40 
Xi_934 OAI222_X1 $PINS ZN=n_1256 A1=n_86 A2=n_88 B1=n_106 B2=n_108 C1=n_128 
+ C2=n_130 
Xi_933 OAI22_X1 $PINS ZN=n_1249 A1=n_68 A2=n_70 B1=n_52 B2=n_54 
Xi_932 AOI211_X1 $PINS ZN=n_1233 A=n_1256 B=n_1249 C1=n_1490 C2=n_1272 
Xi_927 AOI22_X1 $PINS ZN=n_1226 A1=n_68 A2=n_70 B1=n_86 B2=n_88 
Xi_926 OAI211_X1 $PINS ZN=n_1210 A=n_106 B=n_108 C1=n_128 C2=n_130 
Xi_925 AOI21_X1 $PINS ZN=n_1187 A=n_1233 B1=n_128 B2=n_130 
Xi_924 OAI211_X1 $PINS ZN=n_1164 A=n_1210 B=n_1187 C1=n_1256 C2=n_1226 
Xi_923 NOR2_X1 $PINS ZN=n_1011 A1=n_236 A2=n_238 
Xi_922 OAI222_X1 $PINS ZN=n_1010 A1=n_178 A2=n_180 B1=n_206 B2=n_208 C1=n_236 
+ C2=n_238 
Xi_921 INV_X1 $PINS ZN=n_1009 A=n_1010 
Xi_920 OAI211_X1 $PINS ZN=n_1008 A=n_1009 B=n_1164 C1=n_152 C2=n_154 
Xi_919 AOI22_X1 $PINS ZN=n_1007 A1=n_152 A2=n_154 B1=n_178 B2=n_180 
Xi_918 AOI22_X1 $PINS ZN=n_1005 A1=n_236 A2=n_238 B1=n_206 B2=n_208 
Xi_917 OAI221_X1 $PINS ZN=n_998 A=n_1008 B1=n_1010 B2=n_1007 C1=n_1011 
+ C2=n_1005 
Xi_916 NOR2_X1 $PINS ZN=n_991 A1=n_304 A2=n_271 
Xi_915 NOR2_X2 $PINS ZN=n_990 A1=n_376 A2=n_378 
Xi_914 AOI211_X2 $PINS ZN=n_989 A=n_991 B=n_990 C1=n_1621 C2=n_1608 
Xi_913 OAI211_X2 $PINS ZN=n_987 A=n_998 B=n_989 C1=n_268 C2=n_270 
Xi_912 AOI22_X1 $PINS ZN=n_985 A1=n_268 A2=n_270 B1=n_304 B2=n_271 
Xi_911 INV_X1 $PINS ZN=n_983 A=n_985 
Xi_910 NOR3_X1 $PINS ZN=n_981 A1=n_1621 A2=n_990 A3=n_1608 
Xi_909 AOI221_X2 $PINS ZN=n_979 A=n_981 B1=n_989 B2=n_983 C1=n_376 C2=n_378 
Xi_904 NAND2_X1 $PINS ZN=n_977 A1=n_987 A2=n_979 
Xi_903 OAI21_X1 $PINS ZN=n_975 A=n_1536 B1=n_1513 B2=n_977 
Xi_902 AOI21_X1 $PINS ZN=n_973 A=n_1583 B1=n_1569 B2=n_975 
Xi_901 AOI21_X1 $PINS ZN=n_971 A=n_1586 B1=n_775 B2=n_900 
Xi_900 OAI22_X1 $PINS ZN=n_968 A1=n_773 A2=n_938 B1=n_1584 B2=n_973 
Xi_899 XNOR2_X1 $PINS ZN=Res_imm[24] A=n_971 B=n_968 
Xi_898 NOR2_X1 $PINS ZN=n_1451 A1=n_1660 A2=n_1646 
Xi_897 NOR2_X1 $PINS ZN=n_1474 A1=n_1659 A2=n_1647 
Xi_896 NOR2_X1 $PINS ZN=n_1497 A1=n_1658 A2=n_1648 
Xi_895 NOR2_X1 $PINS ZN=n_1382 A1=n_1663 A2=n_1643 
Xi_894 NOR2_X1 $PINS ZN=n_1405 A1=n_1662 A2=n_1644 
Xi_893 NOR2_X1 $PINS ZN=n_1428 A1=n_1661 A2=n_1645 
Xi_892 NOR2_X1 $PINS ZN=n_1313 A1=n_1666 A2=n_1640 
Xi_891 NOR2_X1 $PINS ZN=n_1336 A1=n_1665 A2=n_1641 
Xi_890 NOR2_X1 $PINS ZN=n_1359 A1=n_1664 A2=n_1642 
Xi_889 NOR2_X1 $PINS ZN=n_1430 A1=n_1661 A2=n_1643 
Xi_888 NOR2_X1 $PINS ZN=n_1453 A1=n_1660 A2=n_1644 
Xi_887 NOR2_X1 $PINS ZN=n_1476 A1=n_1659 A2=n_1645 
Xi_886 NOR2_X1 $PINS ZN=n_1361 A1=n_1664 A2=n_1640 
Xi_881 NOR2_X1 $PINS ZN=n_1384 A1=n_1663 A2=n_1641 
Xi_880 NOR2_X1 $PINS ZN=n_1407 A1=n_1662 A2=n_1642 
Xi_879 NOR2_X1 $PINS ZN=n_1292 A1=n_1667 A2=n_1633 
Xi_878 NOR2_X1 $PINS ZN=n_1315 A1=n_1666 A2=n_1634 
Xi_877 NOR2_X1 $PINS ZN=n_1338 A1=n_1665 A2=n_1639 
Xi_876 NOR2_X1 $PINS ZN=n_1544 A1=n_1656 A2=n_1649 
Xi_875 NOR2_X1 $PINS ZN=n_1565 A1=n_1655 A2=n_1650 
Xi_874 NOR2_X1 $PINS ZN=n_1499 A1=n_1658 A2=n_1646 
Xi_873 NOR2_X1 $PINS ZN=n_1522 A1=n_1657 A2=n_1647 
Xi_872 NOR2_X1 $PINS ZN=n_1545 A1=n_1656 A2=n_1648 
Xi_871 NOR2_X1 $PINS ZN=n_1520 A1=n_1657 A2=n_1649 
Xi_870 NOR2_X1 $PINS ZN=n_1543 A1=n_1656 A2=n_1650 
Xi_869 NOR2_X1 $PINS ZN=n_1564 A1=n_1655 A2=n_1651 
Xi_868 NOR2_X1 $PINS ZN=n_1223 A1=n_1670 A2=n_1630 
Xi_867 NOR2_X1 $PINS ZN=n_1246 A1=n_1669 A2=n_1631 
Xi_866 NOR2_X1 $PINS ZN=n_1269 A1=n_1668 A2=n_1632 
Xi_865 NOR2_X1 $PINS ZN=n_1154 A1=n_1674 A2=n_1625 
Xi_864 NOR2_X1 $PINS ZN=n_1177 A1=n_1673 A2=n_1628 
Xi_863 NOR2_X1 $PINS ZN=n_1200 A1=n_1672 A2=n_1629 
Xi_858 NOR2_X1 $PINS ZN=n_1385 A1=n_1663 A2=n_1640 
Xi_857 NOR2_X1 $PINS ZN=n_1408 A1=n_1662 A2=n_1641 
Xi_856 NOR2_X1 $PINS ZN=n_1431 A1=n_1661 A2=n_1642 
Xi_855 NOR2_X1 $PINS ZN=n_1316 A1=n_1666 A2=n_1633 
Xi_854 NOR2_X1 $PINS ZN=n_1339 A1=n_1665 A2=n_1634 
Xi_853 NOR2_X1 $PINS ZN=n_1362 A1=n_1664 A2=n_1639 
Xi_852 NOR2_X1 $PINS ZN=n_1247 A1=n_1669 A2=n_1630 
Xi_851 NOR2_X1 $PINS ZN=n_1270 A1=n_1668 A2=n_1631 
Xi_850 NOR2_X1 $PINS ZN=n_1293 A1=n_1667 A2=n_1632 
Xi_849 NOR2_X1 $PINS ZN=n_1268 A1=n_1668 A2=n_1633 
Xi_848 NOR2_X1 $PINS ZN=n_1291 A1=n_1667 A2=n_1634 
Xi_847 NOR2_X1 $PINS ZN=n_1314 A1=n_1666 A2=n_1639 
Xi_846 NOR2_X1 $PINS ZN=n_1199 A1=n_1672 A2=n_1630 
Xi_845 NOR2_X1 $PINS ZN=n_1222 A1=n_1670 A2=n_1631 
Xi_844 NOR2_X1 $PINS ZN=n_1245 A1=n_1669 A2=n_1632 
Xi_843 NOR2_X1 $PINS ZN=n_1130 A1=n_1675 A2=n_1625 
Xi_842 NOR2_X1 $PINS ZN=n_1153 A1=n_1674 A2=n_1628 
Xi_841 NOR2_X1 $PINS ZN=n_1176 A1=n_1673 A2=n_1629 
Xi_840 NOR2_X1 $PINS ZN=n_1475 A1=n_1659 A2=n_1646 
Xi_835 NOR2_X1 $PINS ZN=n_1498 A1=n_1658 A2=n_1647 