* SPICE NETLIST
***************************************

.SUBCKT MGC_via1_1x2_VV_1
** N=1 EP=0 IP=0 FDC=0
.ENDS
***************************************
.SUBCKT MGC_via2_1x2_VV
** N=1 EP=0 IP=0 FDC=0
.ENDS
***************************************
.SUBCKT MGC_via1_1x2_VV
** N=1 EP=0 IP=0 FDC=0
.ENDS
***************************************
.SUBCKT MGC_via2_1x2_VV_1
** N=1 EP=0 IP=0 FDC=0
.ENDS
***************************************
.SUBCKT via2_5
** N=1 EP=0 IP=0 FDC=0
.ENDS
***************************************
.SUBCKT MGC_via1_1x2_VV_0
** N=1 EP=0 IP=0 FDC=0
.ENDS
***************************************
.SUBCKT MGC_via2_2x1_HH_0
** N=1 EP=0 IP=0 FDC=0
.ENDS
***************************************
.SUBCKT MGC_via1_2x1_HH_0
** N=1 EP=0 IP=0 FDC=0
.ENDS
***************************************
.SUBCKT MGC_via2_2x1_HH
** N=1 EP=0 IP=0 FDC=0
.ENDS
***************************************
.SUBCKT MGC_via2_2x1_HH_1
** N=1 EP=0 IP=0 FDC=0
.ENDS
***************************************
.SUBCKT MGC_via2_1x2_VH_1
** N=1 EP=0 IP=0 FDC=0
.ENDS
***************************************
.SUBCKT MGC_via1_1x2_HV
** N=1 EP=0 IP=0 FDC=0
.ENDS
***************************************
.SUBCKT MGC_via2_2x1_VH_0
** N=1 EP=0 IP=0 FDC=0
.ENDS
***************************************
.SUBCKT ICV_1
** N=1 EP=0 IP=2 FDC=0
.ENDS
***************************************
.SUBCKT MGC_via1_1x2_HV_1
** N=1 EP=0 IP=0 FDC=0
.ENDS
***************************************
.SUBCKT ICV_2
** N=2 EP=0 IP=2 FDC=0
.ENDS
***************************************
.SUBCKT via1_5
** N=1 EP=0 IP=0 FDC=0
.ENDS
***************************************
.SUBCKT via2_7
** N=1 EP=0 IP=0 FDC=0
.ENDS
***************************************
.SUBCKT ICV_3
** N=1 EP=0 IP=2 FDC=0
.ENDS
***************************************
.SUBCKT FILLCELL_X2
** N=4 EP=0 IP=0 FDC=0
*.CALIBRE ISOLATED NETS: VSS VDD
.ENDS
***************************************
.SUBCKT MGC_via2_1x2_VV_0
** N=1 EP=0 IP=0 FDC=0
.ENDS
***************************************
.SUBCKT ICV_4
** N=2 EP=0 IP=2 FDC=0
.ENDS
***************************************
.SUBCKT MGC_via2_1x2_VH_0
** N=1 EP=0 IP=0 FDC=0
.ENDS
***************************************
.SUBCKT MGC_via1_1x2_HV_0
** N=1 EP=0 IP=0 FDC=0
.ENDS
***************************************
.SUBCKT MGC_via2_2x1_VH_1
** N=1 EP=0 IP=0 FDC=0
.ENDS
***************************************
.SUBCKT MGC_via1_2x1_VH
** N=1 EP=0 IP=0 FDC=0
.ENDS
***************************************
.SUBCKT CLKBUF_X1 A VSS VDD Z 5 6
** N=7 EP=6 IP=0 FDC=4
M0 VSS A 7 5 NMOS_VTL L=5e-08 W=9.5e-08 AD=2.03e-14 AS=9.975e-15 PD=6.7e-07 PS=4e-07 $X=165 $Y=160 $D=1
M1 Z 7 VSS 5 NMOS_VTL L=5e-08 W=1.95e-07 AD=2.0475e-14 AS=2.03e-14 PD=6e-07 PS=6.7e-07 $X=355 $Y=160 $D=1
M2 VDD A 7 6 PMOS_VTL L=5e-08 W=3.15e-07 AD=6.615e-14 AS=3.3075e-14 PD=1.54e-06 PS=8.4e-07 $X=165 $Y=995 $D=0
M3 Z 7 VDD 6 PMOS_VTL L=5e-08 W=6.3e-07 AD=6.615e-14 AS=6.615e-14 PD=1.47e-06 PS=1.54e-06 $X=355 $Y=680 $D=0
.ENDS
***************************************
.SUBCKT NOR2_X1 A2 VDD A1 ZN VSS 6 7
** N=8 EP=7 IP=0 FDC=4
M0 ZN A2 VSS 6 NMOS_VTL L=5e-08 W=4.15e-07 AD=5.81e-14 AS=4.3575e-14 PD=1.11e-06 PS=1.04e-06 $X=160 $Y=90 $D=1
M1 VSS A1 ZN 6 NMOS_VTL L=5e-08 W=4.15e-07 AD=4.3575e-14 AS=5.81e-14 PD=1.04e-06 PS=1.11e-06 $X=350 $Y=90 $D=1
M2 8 A2 VDD 7 PMOS_VTL L=5e-08 W=6.3e-07 AD=8.82e-14 AS=6.615e-14 PD=1.54e-06 PS=1.47e-06 $X=160 $Y=680 $D=0
M3 ZN A1 8 7 PMOS_VTL L=5e-08 W=6.3e-07 AD=6.615e-14 AS=8.82e-14 PD=1.47e-06 PS=1.54e-06 $X=350 $Y=680 $D=0
.ENDS
***************************************
.SUBCKT ICV_5
** N=4 EP=0 IP=8 FDC=0
.ENDS
***************************************
.SUBCKT ICV_6
** N=4 EP=0 IP=8 FDC=0
.ENDS
***************************************
.SUBCKT ICV_7
** N=1 EP=0 IP=2 FDC=0
.ENDS
***************************************
.SUBCKT ICV_8
** N=1 EP=0 IP=2 FDC=0
.ENDS
***************************************
.SUBCKT ICV_9
** N=2 EP=0 IP=2 FDC=0
.ENDS
***************************************
.SUBCKT AND2_X1 A1 A2 VSS VDD ZN 6 7
** N=9 EP=7 IP=0 FDC=6
M0 9 A1 8 6 NMOS_VTL L=5e-08 W=2.1e-07 AD=2.94e-14 AS=2.205e-14 PD=7e-07 PS=6.3e-07 $X=145 $Y=90 $D=1
M1 VSS A2 9 6 NMOS_VTL L=5e-08 W=2.1e-07 AD=4.375e-14 AS=2.94e-14 PD=1.11e-06 PS=7e-07 $X=335 $Y=90 $D=1
M2 ZN 8 VSS 6 NMOS_VTL L=5e-08 W=4.15e-07 AD=4.3575e-14 AS=4.375e-14 PD=1.04e-06 PS=1.11e-06 $X=525 $Y=90 $D=1
M3 8 A1 VDD 7 PMOS_VTL L=5e-08 W=3.15e-07 AD=4.41e-14 AS=3.3075e-14 PD=9.1e-07 PS=8.4e-07 $X=145 $Y=995 $D=0
M4 VDD A2 8 7 PMOS_VTL L=5e-08 W=3.15e-07 AD=6.615e-14 AS=4.41e-14 PD=1.54e-06 PS=9.1e-07 $X=335 $Y=995 $D=0
M5 ZN 8 VDD 7 PMOS_VTL L=5e-08 W=6.3e-07 AD=6.615e-14 AS=6.615e-14 PD=1.47e-06 PS=1.54e-06 $X=525 $Y=680 $D=0
.ENDS
***************************************
.SUBCKT AOI21_X1 B2 B1 ZN A VSS VDD 7 8
** N=10 EP=8 IP=0 FDC=6
M0 10 B2 VSS 7 NMOS_VTL L=5e-08 W=4.15e-07 AD=5.81e-14 AS=4.3575e-14 PD=1.11e-06 PS=1.04e-06 $X=185 $Y=90 $D=1
M1 ZN B1 10 7 NMOS_VTL L=5e-08 W=4.15e-07 AD=5.81e-14 AS=5.81e-14 PD=1.11e-06 PS=1.11e-06 $X=375 $Y=90 $D=1
M2 VSS A ZN 7 NMOS_VTL L=5e-08 W=4.15e-07 AD=4.3575e-14 AS=5.81e-14 PD=1.04e-06 PS=1.11e-06 $X=565 $Y=90 $D=1
M3 ZN B2 9 8 PMOS_VTL L=5e-08 W=6.3e-07 AD=8.82e-14 AS=6.615e-14 PD=1.54e-06 PS=1.47e-06 $X=185 $Y=680 $D=0
M4 9 B1 ZN 8 PMOS_VTL L=5e-08 W=6.3e-07 AD=8.82e-14 AS=8.82e-14 PD=1.54e-06 PS=1.54e-06 $X=375 $Y=680 $D=0
M5 VDD A 9 8 PMOS_VTL L=5e-08 W=6.3e-07 AD=6.615e-14 AS=8.82e-14 PD=1.47e-06 PS=1.54e-06 $X=565 $Y=680 $D=0
.ENDS
***************************************
.SUBCKT OAI21_X1 B2 B1 ZN A VSS VDD 7 8
** N=10 EP=8 IP=0 FDC=6
M0 ZN B2 9 7 NMOS_VTL L=5e-08 W=4.15e-07 AD=5.81e-14 AS=4.3575e-14 PD=1.11e-06 PS=1.04e-06 $X=170 $Y=90 $D=1
M1 9 B1 ZN 7 NMOS_VTL L=5e-08 W=4.15e-07 AD=5.81e-14 AS=5.81e-14 PD=1.11e-06 PS=1.11e-06 $X=360 $Y=90 $D=1
M2 VSS A 9 7 NMOS_VTL L=5e-08 W=4.15e-07 AD=4.3575e-14 AS=5.81e-14 PD=1.04e-06 PS=1.11e-06 $X=550 $Y=90 $D=1
M3 10 B2 VDD 8 PMOS_VTL L=5e-08 W=6.3e-07 AD=8.82e-14 AS=6.615e-14 PD=1.54e-06 PS=1.47e-06 $X=170 $Y=680 $D=0
M4 ZN B1 10 8 PMOS_VTL L=5e-08 W=6.3e-07 AD=8.82e-14 AS=8.82e-14 PD=1.54e-06 PS=1.54e-06 $X=360 $Y=680 $D=0
M5 VDD A ZN 8 PMOS_VTL L=5e-08 W=6.3e-07 AD=6.615e-14 AS=8.82e-14 PD=1.47e-06 PS=1.54e-06 $X=550 $Y=680 $D=0
.ENDS
***************************************
.SUBCKT ICV_10
** N=1 EP=0 IP=2 FDC=0
.ENDS
***************************************
.SUBCKT ICV_11
** N=2 EP=0 IP=2 FDC=0
.ENDS
***************************************
.SUBCKT ICV_12
** N=2 EP=0 IP=2 FDC=0
.ENDS
***************************************
.SUBCKT AOI22_X1 B2 B1 VDD A1 ZN A2 VSS 8 9
** N=12 EP=9 IP=0 FDC=8
M0 11 B2 VSS 8 NMOS_VTL L=5e-08 W=4.15e-07 AD=5.81e-14 AS=4.3575e-14 PD=1.11e-06 PS=1.04e-06 $X=160 $Y=90 $D=1
M1 ZN B1 11 8 NMOS_VTL L=5e-08 W=4.15e-07 AD=5.81e-14 AS=5.81e-14 PD=1.11e-06 PS=1.11e-06 $X=350 $Y=90 $D=1
M2 12 A1 ZN 8 NMOS_VTL L=5e-08 W=4.15e-07 AD=5.81e-14 AS=5.81e-14 PD=1.11e-06 PS=1.11e-06 $X=540 $Y=90 $D=1
M3 VSS A2 12 8 NMOS_VTL L=5e-08 W=4.15e-07 AD=4.3575e-14 AS=5.81e-14 PD=1.04e-06 PS=1.11e-06 $X=730 $Y=90 $D=1
M4 VDD B2 10 9 PMOS_VTL L=5e-08 W=6.3e-07 AD=8.82e-14 AS=6.615e-14 PD=1.54e-06 PS=1.47e-06 $X=160 $Y=680 $D=0
M5 10 B1 VDD 9 PMOS_VTL L=5e-08 W=6.3e-07 AD=8.82e-14 AS=8.82e-14 PD=1.54e-06 PS=1.54e-06 $X=350 $Y=680 $D=0
M6 ZN A1 10 9 PMOS_VTL L=5e-08 W=6.3e-07 AD=8.82e-14 AS=8.82e-14 PD=1.54e-06 PS=1.54e-06 $X=540 $Y=680 $D=0
M7 10 A2 ZN 9 PMOS_VTL L=5e-08 W=6.3e-07 AD=6.615e-14 AS=8.82e-14 PD=1.47e-06 PS=1.54e-06 $X=730 $Y=680 $D=0
.ENDS
***************************************
.SUBCKT MGC_via1_2x1_HH_1
** N=1 EP=0 IP=0 FDC=0
.ENDS
***************************************
.SUBCKT ICV_13
** N=2 EP=0 IP=2 FDC=0
.ENDS
***************************************
.SUBCKT ICV_14 1 2 3 4 5 6 7 8
** N=8 EP=8 IP=12 FDC=8
X0 1 2 3 4 7 8 CLKBUF_X1 $T=0 0 0 0 $X=-115 $Y=-115
X1 5 2 3 6 7 8 CLKBUF_X1 $T=1140 0 1 180 $X=455 $Y=-115
.ENDS
***************************************
.SUBCKT ICV_15 1 2 3 4 5 6 7 8
** N=8 EP=8 IP=12 FDC=8
X0 1 2 3 4 7 8 CLKBUF_X1 $T=-570 0 0 0 $X=-685 $Y=-115
X1 5 2 3 6 7 8 CLKBUF_X1 $T=0 0 0 0 $X=-115 $Y=-115
.ENDS
***************************************
.SUBCKT INV_X1 A VSS VDD ZN 5 6
** N=6 EP=6 IP=0 FDC=2
M0 ZN A VSS 5 NMOS_VTL L=5e-08 W=4.15e-07 AD=4.3575e-14 AS=4.3575e-14 PD=1.04e-06 PS=1.04e-06 $X=145 $Y=90 $D=1
M1 ZN A VDD 6 PMOS_VTL L=5e-08 W=6.3e-07 AD=6.615e-14 AS=6.615e-14 PD=1.47e-06 PS=1.47e-06 $X=145 $Y=680 $D=0
.ENDS
***************************************
.SUBCKT OAI221_X1 B2 B1 VSS A C2 VDD C1 ZN 9 10
** N=14 EP=10 IP=0 FDC=10
M0 VSS B2 11 9 NMOS_VTL L=5e-08 W=4.15e-07 AD=5.81e-14 AS=4.3575e-14 PD=1.11e-06 PS=1.04e-06 $X=145 $Y=90 $D=1
M1 11 B1 VSS 9 NMOS_VTL L=5e-08 W=4.15e-07 AD=5.81e-14 AS=5.81e-14 PD=1.11e-06 PS=1.11e-06 $X=335 $Y=90 $D=1
M2 12 A 11 9 NMOS_VTL L=5e-08 W=4.15e-07 AD=5.81e-14 AS=5.81e-14 PD=1.11e-06 PS=1.11e-06 $X=525 $Y=90 $D=1
M3 ZN C2 12 9 NMOS_VTL L=5e-08 W=4.15e-07 AD=5.81e-14 AS=5.81e-14 PD=1.11e-06 PS=1.11e-06 $X=715 $Y=90 $D=1
M4 12 C1 ZN 9 NMOS_VTL L=5e-08 W=4.15e-07 AD=4.3575e-14 AS=5.81e-14 PD=1.04e-06 PS=1.11e-06 $X=905 $Y=90 $D=1
M5 13 B2 VDD 10 PMOS_VTL L=5e-08 W=6.3e-07 AD=8.82e-14 AS=6.615e-14 PD=1.54e-06 PS=1.47e-06 $X=145 $Y=680 $D=0
M6 ZN B1 13 10 PMOS_VTL L=5e-08 W=6.3e-07 AD=8.82e-14 AS=8.82e-14 PD=1.54e-06 PS=1.54e-06 $X=335 $Y=680 $D=0
M7 VDD A ZN 10 PMOS_VTL L=5e-08 W=6.3e-07 AD=8.82e-14 AS=8.82e-14 PD=1.54e-06 PS=1.54e-06 $X=525 $Y=680 $D=0
M8 14 C2 VDD 10 PMOS_VTL L=5e-08 W=6.3e-07 AD=8.82e-14 AS=8.82e-14 PD=1.54e-06 PS=1.54e-06 $X=715 $Y=680 $D=0
M9 ZN C1 14 10 PMOS_VTL L=5e-08 W=6.3e-07 AD=6.615e-14 AS=8.82e-14 PD=1.47e-06 PS=1.54e-06 $X=905 $Y=680 $D=0
.ENDS
***************************************
.SUBCKT ICV_16
** N=1 EP=0 IP=2 FDC=0
.ENDS
***************************************
.SUBCKT ICV_17
** N=2 EP=0 IP=2 FDC=0
.ENDS
***************************************
.SUBCKT FILLCELL_X4
** N=4 EP=0 IP=0 FDC=0
*.CALIBRE ISOLATED NETS: VSS VDD
.ENDS
***************************************
.SUBCKT ICV_18
** N=4 EP=0 IP=8 FDC=0
.ENDS
***************************************
.SUBCKT FILLCELL_X8
** N=4 EP=0 IP=0 FDC=0
*.CALIBRE ISOLATED NETS: VSS VDD
.ENDS
***************************************
.SUBCKT OAI222_X1 C2 C1 VSS B1 B2 A2 VDD A1 ZN 10 11
** N=16 EP=11 IP=0 FDC=12
M0 12 C2 VSS 10 NMOS_VTL L=5e-08 W=4.15e-07 AD=5.81e-14 AS=4.3575e-14 PD=1.11e-06 PS=1.04e-06 $X=155 $Y=90 $D=1
M1 VSS C1 12 10 NMOS_VTL L=5e-08 W=4.15e-07 AD=4.3575e-14 AS=5.81e-14 PD=1.04e-06 PS=1.11e-06 $X=345 $Y=90 $D=1
M2 12 B1 13 10 NMOS_VTL L=5e-08 W=4.15e-07 AD=5.81e-14 AS=4.3575e-14 PD=1.11e-06 PS=1.04e-06 $X=710 $Y=90 $D=1
M3 13 B2 12 10 NMOS_VTL L=5e-08 W=4.15e-07 AD=5.81e-14 AS=5.81e-14 PD=1.11e-06 PS=1.11e-06 $X=900 $Y=90 $D=1
M4 ZN A2 13 10 NMOS_VTL L=5e-08 W=4.15e-07 AD=5.81e-14 AS=5.81e-14 PD=1.11e-06 PS=1.11e-06 $X=1090 $Y=90 $D=1
M5 13 A1 ZN 10 NMOS_VTL L=5e-08 W=4.15e-07 AD=4.3575e-14 AS=5.81e-14 PD=1.04e-06 PS=1.11e-06 $X=1280 $Y=90 $D=1
M6 14 C2 VDD 11 PMOS_VTL L=5e-08 W=6.3e-07 AD=8.82e-14 AS=6.615e-14 PD=1.54e-06 PS=1.47e-06 $X=155 $Y=680 $D=0
M7 ZN C1 14 11 PMOS_VTL L=5e-08 W=6.3e-07 AD=1.9845e-13 AS=8.82e-14 PD=1.89e-06 PS=1.54e-06 $X=345 $Y=680 $D=0
M8 15 B1 ZN 11 PMOS_VTL L=5e-08 W=6.3e-07 AD=8.82e-14 AS=1.9845e-13 PD=1.54e-06 PS=1.89e-06 $X=710 $Y=680 $D=0
M9 VDD B2 15 11 PMOS_VTL L=5e-08 W=6.3e-07 AD=8.82e-14 AS=8.82e-14 PD=1.54e-06 PS=1.54e-06 $X=900 $Y=680 $D=0
M10 16 A2 VDD 11 PMOS_VTL L=5e-08 W=6.3e-07 AD=8.82e-14 AS=8.82e-14 PD=1.54e-06 PS=1.54e-06 $X=1090 $Y=680 $D=0
M11 ZN A1 16 11 PMOS_VTL L=5e-08 W=6.3e-07 AD=6.615e-14 AS=8.82e-14 PD=1.47e-06 PS=1.54e-06 $X=1280 $Y=680 $D=0
.ENDS
***************************************
.SUBCKT ICV_19
** N=2 EP=0 IP=2 FDC=0
.ENDS
***************************************
.SUBCKT ICV_20
** N=2 EP=0 IP=2 FDC=0
.ENDS
***************************************
.SUBCKT ICV_21 1 2 3 4 5 6 7 8
** N=8 EP=8 IP=12 FDC=8
X0 1 2 3 4 7 8 CLKBUF_X1 $T=0 0 0 0 $X=-115 $Y=-115
X1 5 2 3 6 7 8 CLKBUF_X1 $T=570 0 0 0 $X=455 $Y=-115
.ENDS
***************************************
.SUBCKT ICV_22 1 2 3 4 5 6 7 8
** N=8 EP=8 IP=12 FDC=8
X0 1 2 3 4 7 8 CLKBUF_X1 $T=0 0 1 180 $X=-685 $Y=-115
X1 5 2 3 6 7 8 CLKBUF_X1 $T=0 0 0 0 $X=-115 $Y=-115
.ENDS
***************************************
.SUBCKT ICV_23
** N=2 EP=0 IP=2 FDC=0
.ENDS
***************************************
.SUBCKT ICV_24
** N=2 EP=0 IP=2 FDC=0
.ENDS
***************************************
.SUBCKT DLH_X1 G Q D VSS VDD 6 7
** N=15 EP=7 IP=0 FDC=16
M0 VSS G 8 6 NMOS_VTL L=5e-08 W=2.1e-07 AD=4.375e-14 AS=2.205e-14 PD=1.11e-06 PS=6.3e-07 $X=170 $Y=90 $D=1
M1 Q 10 VSS 6 NMOS_VTL L=5e-08 W=4.15e-07 AD=4.3575e-14 AS=4.375e-14 PD=1.04e-06 PS=1.11e-06 $X=360 $Y=90 $D=1
M2 VSS 8 9 6 NMOS_VTL L=5e-08 W=2.1e-07 AD=2.94e-14 AS=2.205e-14 PD=7e-07 PS=6.3e-07 $X=755 $Y=215 $D=1
M3 14 D VSS 6 NMOS_VTL L=5e-08 W=2.1e-07 AD=2.94e-14 AS=2.94e-14 PD=7e-07 PS=7e-07 $X=945 $Y=215 $D=1
M4 10 9 14 6 NMOS_VTL L=5e-08 W=2.1e-07 AD=2.1e-14 AS=2.94e-14 PD=7e-07 PS=7e-07 $X=1135 $Y=215 $D=1
M5 15 8 10 6 NMOS_VTL L=5e-08 W=9e-08 AD=1.26e-14 AS=2.1e-14 PD=4.6e-07 PS=7e-07 $X=1325 $Y=335 $D=1
M6 VSS 11 15 6 NMOS_VTL L=5e-08 W=9e-08 AD=1.26e-14 AS=1.26e-14 PD=4.6e-07 PS=4.6e-07 $X=1515 $Y=335 $D=1
M7 11 10 VSS 6 NMOS_VTL L=5e-08 W=9e-08 AD=9.45e-15 AS=1.26e-14 PD=3.9e-07 PS=4.6e-07 $X=1705 $Y=335 $D=1
M8 VDD G 8 7 PMOS_VTL L=5e-08 W=3.15e-07 AD=6.615e-14 AS=3.3075e-14 PD=1.54e-06 PS=8.4e-07 $X=170 $Y=995 $D=0
M9 Q 10 VDD 7 PMOS_VTL L=5e-08 W=6.3e-07 AD=6.615e-14 AS=6.615e-14 PD=1.47e-06 PS=1.54e-06 $X=360 $Y=680 $D=0
M10 VDD 8 9 7 PMOS_VTL L=5e-08 W=3.15e-07 AD=4.41e-14 AS=3.3075e-14 PD=9.1e-07 PS=8.4e-07 $X=755 $Y=815 $D=0
M11 12 D VDD 7 PMOS_VTL L=5e-08 W=3.15e-07 AD=4.41e-14 AS=4.41e-14 PD=9.1e-07 PS=9.1e-07 $X=945 $Y=815 $D=0
M12 10 8 12 7 PMOS_VTL L=5e-08 W=3.15e-07 AD=2.835e-14 AS=4.41e-14 PD=9.1e-07 PS=9.1e-07 $X=1135 $Y=815 $D=0
M13 13 9 10 7 PMOS_VTL L=5e-08 W=9e-08 AD=1.26e-14 AS=2.835e-14 PD=4.6e-07 PS=9.1e-07 $X=1325 $Y=1040 $D=0
M14 VDD 11 13 7 PMOS_VTL L=5e-08 W=9e-08 AD=1.26e-14 AS=1.26e-14 PD=4.6e-07 PS=4.6e-07 $X=1515 $Y=1040 $D=0
M15 11 10 VDD 7 PMOS_VTL L=5e-08 W=9e-08 AD=9.45e-15 AS=1.26e-14 PD=3.9e-07 PS=4.6e-07 $X=1705 $Y=1040 $D=0
.ENDS
***************************************
.SUBCKT ICV_25
** N=4 EP=0 IP=8 FDC=0
.ENDS
***************************************
.SUBCKT HA_X1 S B A VSS VDD CO 7 8
** N=14 EP=8 IP=0 FDC=16
M0 13 B VSS 7 NMOS_VTL L=5e-08 W=4.15e-07 AD=5.81e-14 AS=4.3575e-14 PD=1.11e-06 PS=1.04e-06 $X=185 $Y=90 $D=1
M1 S A 13 7 NMOS_VTL L=5e-08 W=4.15e-07 AD=5.81e-14 AS=5.81e-14 PD=1.11e-06 PS=1.11e-06 $X=375 $Y=90 $D=1
M2 VSS 10 S 7 NMOS_VTL L=5e-08 W=4.15e-07 AD=4.48e-14 AS=5.81e-14 PD=1.12e-06 PS=1.11e-06 $X=565 $Y=90 $D=1
M3 10 B VSS 7 NMOS_VTL L=5e-08 W=2.1e-07 AD=2.94e-14 AS=4.48e-14 PD=7e-07 PS=1.12e-06 $X=760 $Y=90 $D=1
M4 VSS A 10 7 NMOS_VTL L=5e-08 W=2.1e-07 AD=2.205e-14 AS=2.94e-14 PD=6.3e-07 PS=7e-07 $X=950 $Y=90 $D=1
M5 14 A 11 7 NMOS_VTL L=5e-08 W=2.1e-07 AD=2.94e-14 AS=2.205e-14 PD=7e-07 PS=6.3e-07 $X=1320 $Y=90 $D=1
M6 VSS B 14 7 NMOS_VTL L=5e-08 W=2.1e-07 AD=4.375e-14 AS=2.94e-14 PD=1.11e-06 PS=7e-07 $X=1510 $Y=90 $D=1
M7 CO 11 VSS 7 NMOS_VTL L=5e-08 W=4.15e-07 AD=4.3575e-14 AS=4.375e-14 PD=1.04e-06 PS=1.11e-06 $X=1700 $Y=90 $D=1
M8 S B 9 8 PMOS_VTL L=5e-08 W=6.3e-07 AD=8.82e-14 AS=6.615e-14 PD=1.54e-06 PS=1.47e-06 $X=185 $Y=680 $D=0
M9 9 A S 8 PMOS_VTL L=5e-08 W=6.3e-07 AD=8.82e-14 AS=8.82e-14 PD=1.54e-06 PS=1.54e-06 $X=375 $Y=680 $D=0
M10 VDD 10 9 8 PMOS_VTL L=5e-08 W=6.3e-07 AD=6.7725e-14 AS=8.82e-14 PD=1.55e-06 PS=1.54e-06 $X=565 $Y=680 $D=0
M11 12 B VDD 8 PMOS_VTL L=5e-08 W=3.15e-07 AD=4.41e-14 AS=6.7725e-14 PD=9.1e-07 PS=1.55e-06 $X=760 $Y=870 $D=0
M12 10 A 12 8 PMOS_VTL L=5e-08 W=3.15e-07 AD=3.3075e-14 AS=4.41e-14 PD=8.4e-07 PS=9.1e-07 $X=950 $Y=870 $D=0
M13 11 A VDD 8 PMOS_VTL L=5e-08 W=3.15e-07 AD=4.41e-14 AS=3.3075e-14 PD=9.1e-07 PS=8.4e-07 $X=1320 $Y=870 $D=0
M14 VDD B 11 8 PMOS_VTL L=5e-08 W=3.15e-07 AD=6.615e-14 AS=4.41e-14 PD=1.54e-06 PS=9.1e-07 $X=1510 $Y=870 $D=0
M15 CO 11 VDD 8 PMOS_VTL L=5e-08 W=6.3e-07 AD=6.615e-14 AS=6.615e-14 PD=1.47e-06 PS=1.54e-06 $X=1700 $Y=680 $D=0
.ENDS
***************************************
.SUBCKT ICV_26 1 2 3 4 5 6 7
** N=7 EP=7 IP=11 FDC=4
X0 1 2 3 4 5 6 7 NOR2_X1 $T=0 0 0 0 $X=-115 $Y=-115
.ENDS
***************************************
.SUBCKT ICV_27 1 2 3 4 5 6 7
** N=7 EP=7 IP=11 FDC=4
X1 3 2 5 4 1 6 7 ICV_26 $T=0 0 0 0 $X=-115 $Y=-115
.ENDS
***************************************
.SUBCKT ICV_28 1 2 3 4 5 6 7
** N=7 EP=7 IP=11 FDC=4
X1 3 2 4 5 1 6 7 NOR2_X1 $T=760 0 1 180 $X=75 $Y=-115
.ENDS
***************************************
.SUBCKT ICV_29
** N=1 EP=0 IP=2 FDC=0
.ENDS
***************************************
.SUBCKT ICV_30
** N=2 EP=0 IP=2 FDC=0
.ENDS
***************************************
.SUBCKT ICV_31
** N=4 EP=0 IP=8 FDC=0
.ENDS
***************************************
.SUBCKT ICV_32
** N=4 EP=0 IP=8 FDC=0
.ENDS
***************************************
.SUBCKT ICV_33
** N=1 EP=0 IP=2 FDC=0
.ENDS
***************************************
.SUBCKT ICV_34
** N=1 EP=0 IP=2 FDC=0
.ENDS
***************************************
.SUBCKT via1_7
** N=1 EP=0 IP=0 FDC=0
.ENDS
***************************************
.SUBCKT ICV_35
** N=4 EP=0 IP=8 FDC=0
.ENDS
***************************************
.SUBCKT ICV_36
** N=4 EP=0 IP=8 FDC=0
.ENDS
***************************************
.SUBCKT ICV_37
** N=2 EP=0 IP=2 FDC=0
.ENDS
***************************************
.SUBCKT NOR4_X1 A4 VDD A3 A2 A1 ZN VSS 8 9
** N=12 EP=9 IP=0 FDC=8
M0 ZN A4 VSS 8 NMOS_VTL L=5e-08 W=4.15e-07 AD=5.81e-14 AS=4.3575e-14 PD=1.11e-06 PS=1.04e-06 $X=145 $Y=90 $D=1
M1 VSS A3 ZN 8 NMOS_VTL L=5e-08 W=4.15e-07 AD=5.81e-14 AS=5.81e-14 PD=1.11e-06 PS=1.11e-06 $X=335 $Y=90 $D=1
M2 ZN A2 VSS 8 NMOS_VTL L=5e-08 W=4.15e-07 AD=5.81e-14 AS=5.81e-14 PD=1.11e-06 PS=1.11e-06 $X=525 $Y=90 $D=1
M3 VSS A1 ZN 8 NMOS_VTL L=5e-08 W=4.15e-07 AD=4.3575e-14 AS=5.81e-14 PD=1.04e-06 PS=1.11e-06 $X=715 $Y=90 $D=1
M4 10 A4 VDD 9 PMOS_VTL L=5e-08 W=6.3e-07 AD=8.82e-14 AS=6.615e-14 PD=1.54e-06 PS=1.47e-06 $X=145 $Y=680 $D=0
M5 11 A3 10 9 PMOS_VTL L=5e-08 W=6.3e-07 AD=8.82e-14 AS=8.82e-14 PD=1.54e-06 PS=1.54e-06 $X=335 $Y=680 $D=0
M6 12 A2 11 9 PMOS_VTL L=5e-08 W=6.3e-07 AD=8.82e-14 AS=8.82e-14 PD=1.54e-06 PS=1.54e-06 $X=525 $Y=680 $D=0
M7 ZN A1 12 9 PMOS_VTL L=5e-08 W=6.3e-07 AD=6.615e-14 AS=8.82e-14 PD=1.47e-06 PS=1.54e-06 $X=715 $Y=680 $D=0
.ENDS
***************************************
.SUBCKT INV_X4 A ZN VSS VDD 5 6
** N=6 EP=6 IP=0 FDC=8
M0 ZN A VSS 5 NMOS_VTL L=5e-08 W=4.15e-07 AD=5.81e-14 AS=4.3575e-14 PD=1.11e-06 PS=1.04e-06 $X=145 $Y=90 $D=1
M1 VSS A ZN 5 NMOS_VTL L=5e-08 W=4.15e-07 AD=5.81e-14 AS=5.81e-14 PD=1.11e-06 PS=1.11e-06 $X=335 $Y=90 $D=1
M2 ZN A VSS 5 NMOS_VTL L=5e-08 W=4.15e-07 AD=5.81e-14 AS=5.81e-14 PD=1.11e-06 PS=1.11e-06 $X=525 $Y=90 $D=1
M3 VSS A ZN 5 NMOS_VTL L=5e-08 W=4.15e-07 AD=4.3575e-14 AS=5.81e-14 PD=1.04e-06 PS=1.11e-06 $X=715 $Y=90 $D=1
M4 ZN A VDD 6 PMOS_VTL L=5e-08 W=6.3e-07 AD=8.82e-14 AS=6.615e-14 PD=1.54e-06 PS=1.47e-06 $X=145 $Y=680 $D=0
M5 VDD A ZN 6 PMOS_VTL L=5e-08 W=6.3e-07 AD=8.82e-14 AS=8.82e-14 PD=1.54e-06 PS=1.54e-06 $X=335 $Y=680 $D=0
M6 ZN A VDD 6 PMOS_VTL L=5e-08 W=6.3e-07 AD=8.82e-14 AS=8.82e-14 PD=1.54e-06 PS=1.54e-06 $X=525 $Y=680 $D=0
M7 VDD A ZN 6 PMOS_VTL L=5e-08 W=6.3e-07 AD=6.615e-14 AS=8.82e-14 PD=1.47e-06 PS=1.54e-06 $X=715 $Y=680 $D=0
.ENDS
***************************************
.SUBCKT INV_X2 A ZN VSS VDD 5 6
** N=6 EP=6 IP=0 FDC=4
M0 ZN A VSS 5 NMOS_VTL L=5e-08 W=4.15e-07 AD=5.81e-14 AS=4.3575e-14 PD=1.11e-06 PS=1.04e-06 $X=160 $Y=90 $D=1
M1 VSS A ZN 5 NMOS_VTL L=5e-08 W=4.15e-07 AD=4.3575e-14 AS=5.81e-14 PD=1.04e-06 PS=1.11e-06 $X=350 $Y=90 $D=1
M2 ZN A VDD 6 PMOS_VTL L=5e-08 W=6.3e-07 AD=8.82e-14 AS=6.615e-14 PD=1.54e-06 PS=1.47e-06 $X=160 $Y=680 $D=0
M3 VDD A ZN 6 PMOS_VTL L=5e-08 W=6.3e-07 AD=6.615e-14 AS=8.82e-14 PD=1.47e-06 PS=1.54e-06 $X=350 $Y=680 $D=0
.ENDS
***************************************
.SUBCKT ICV_38
** N=1 EP=0 IP=2 FDC=0
.ENDS
***************************************
.SUBCKT ICV_39
** N=1 EP=0 IP=2 FDC=0
.ENDS
***************************************
.SUBCKT ICV_40
** N=2 EP=0 IP=2 FDC=0
.ENDS
***************************************
.SUBCKT ICV_41 1 2 3 4 5 6 7 8 9
** N=9 EP=9 IP=14 FDC=12
X0 1 2 3 4 5 8 9 AND2_X1 $T=0 0 1 180 $X=-875 $Y=-115
X1 1 6 3 4 7 8 9 AND2_X1 $T=0 0 0 0 $X=-115 $Y=-115
.ENDS
***************************************
.SUBCKT FA_X1 CO CI B A VDD VSS S 8 9
** N=21 EP=9 IP=0 FDC=28
M0 VSS 10 CO 8 NMOS_VTL L=5e-08 W=4.15e-07 AD=4.375e-14 AS=4.3575e-14 PD=1.11e-06 PS=1.04e-06 $X=170 $Y=90 $D=1
M1 19 B VSS 8 NMOS_VTL L=5e-08 W=2.1e-07 AD=2.94e-14 AS=4.375e-14 PD=7e-07 PS=1.11e-06 $X=360 $Y=215 $D=1
M2 10 A 19 8 NMOS_VTL L=5e-08 W=2.1e-07 AD=2.94e-14 AS=2.94e-14 PD=7e-07 PS=7e-07 $X=550 $Y=215 $D=1
M3 11 CI 10 8 NMOS_VTL L=5e-08 W=2.1e-07 AD=3.045e-14 AS=2.94e-14 PD=7.1e-07 PS=7e-07 $X=740 $Y=215 $D=1
M4 VSS A 11 8 NMOS_VTL L=5e-08 W=2.1e-07 AD=2.94e-14 AS=3.045e-14 PD=7e-07 PS=7.1e-07 $X=935 $Y=215 $D=1
M5 11 B VSS 8 NMOS_VTL L=5e-08 W=2.1e-07 AD=2.205e-14 AS=2.94e-14 PD=6.3e-07 PS=7e-07 $X=1125 $Y=215 $D=1
M6 13 B VSS 8 NMOS_VTL L=5e-08 W=2.1e-07 AD=2.94e-14 AS=2.205e-14 PD=7e-07 PS=6.3e-07 $X=1465 $Y=90 $D=1
M7 VSS CI 13 8 NMOS_VTL L=5e-08 W=2.1e-07 AD=2.94e-14 AS=2.94e-14 PD=7e-07 PS=7e-07 $X=1655 $Y=90 $D=1
M8 13 A VSS 8 NMOS_VTL L=5e-08 W=2.1e-07 AD=2.94e-14 AS=2.94e-14 PD=7e-07 PS=7e-07 $X=1845 $Y=90 $D=1
M9 15 10 13 8 NMOS_VTL L=5e-08 W=2.1e-07 AD=3.15e-14 AS=2.94e-14 PD=7.2e-07 PS=7e-07 $X=2035 $Y=90 $D=1
M10 20 CI 15 8 NMOS_VTL L=5e-08 W=2.1e-07 AD=2.94e-14 AS=3.15e-14 PD=7e-07 PS=7.2e-07 $X=2235 $Y=90 $D=1
M11 21 B 20 8 NMOS_VTL L=5e-08 W=2.1e-07 AD=2.94e-14 AS=2.94e-14 PD=7e-07 PS=7e-07 $X=2425 $Y=90 $D=1
M12 VSS A 21 8 NMOS_VTL L=5e-08 W=2.1e-07 AD=4.375e-14 AS=2.94e-14 PD=1.11e-06 PS=7e-07 $X=2615 $Y=90 $D=1
M13 S 15 VSS 8 NMOS_VTL L=5e-08 W=4.15e-07 AD=4.3575e-14 AS=4.375e-14 PD=1.04e-06 PS=1.11e-06 $X=2805 $Y=90 $D=1
M14 VDD 10 CO 9 PMOS_VTL L=5e-08 W=6.3e-07 AD=6.615e-14 AS=6.615e-14 PD=1.54e-06 PS=1.47e-06 $X=170 $Y=680 $D=0
M15 16 B VDD 9 PMOS_VTL L=5e-08 W=3.15e-07 AD=4.41e-14 AS=6.615e-14 PD=9.1e-07 PS=1.54e-06 $X=360 $Y=870 $D=0
M16 10 A 16 9 PMOS_VTL L=5e-08 W=3.15e-07 AD=4.41e-14 AS=4.41e-14 PD=9.1e-07 PS=9.1e-07 $X=550 $Y=870 $D=0
M17 12 CI 10 9 PMOS_VTL L=5e-08 W=3.15e-07 AD=4.53e-14 AS=4.41e-14 PD=1.07e-06 PS=9.1e-07 $X=740 $Y=870 $D=0
M18 VDD A 12 9 PMOS_VTL L=5e-08 W=3.15e-07 AD=4.41e-14 AS=4.53e-14 PD=9.1e-07 PS=1.07e-06 $X=935 $Y=945 $D=0
M19 12 B VDD 9 PMOS_VTL L=5e-08 W=3.15e-07 AD=3.3075e-14 AS=4.41e-14 PD=8.4e-07 PS=9.1e-07 $X=1125 $Y=945 $D=0
M20 14 B VDD 9 PMOS_VTL L=5e-08 W=3.15e-07 AD=4.41e-14 AS=3.3075e-14 PD=9.1e-07 PS=8.4e-07 $X=1465 $Y=995 $D=0
M21 VDD CI 14 9 PMOS_VTL L=5e-08 W=3.15e-07 AD=4.41e-14 AS=4.41e-14 PD=9.1e-07 PS=9.1e-07 $X=1655 $Y=995 $D=0
M22 14 A VDD 9 PMOS_VTL L=5e-08 W=3.15e-07 AD=4.41e-14 AS=4.41e-14 PD=9.1e-07 PS=9.1e-07 $X=1845 $Y=995 $D=0
M23 15 10 14 9 PMOS_VTL L=5e-08 W=3.15e-07 AD=4.725e-14 AS=4.41e-14 PD=9.3e-07 PS=9.1e-07 $X=2035 $Y=995 $D=0
M24 17 CI 15 9 PMOS_VTL L=5e-08 W=3.15e-07 AD=4.41e-14 AS=4.725e-14 PD=9.1e-07 PS=9.3e-07 $X=2235 $Y=995 $D=0
M25 18 B 17 9 PMOS_VTL L=5e-08 W=3.15e-07 AD=4.41e-14 AS=4.41e-14 PD=9.1e-07 PS=9.1e-07 $X=2425 $Y=995 $D=0
M26 VDD A 18 9 PMOS_VTL L=5e-08 W=3.15e-07 AD=6.615e-14 AS=4.41e-14 PD=1.54e-06 PS=9.1e-07 $X=2615 $Y=995 $D=0
M27 S 15 VDD 9 PMOS_VTL L=5e-08 W=6.3e-07 AD=6.615e-14 AS=6.615e-14 PD=1.47e-06 PS=1.54e-06 $X=2805 $Y=680 $D=0
.ENDS
***************************************
.SUBCKT ICV_42
** N=2 EP=0 IP=2 FDC=0
.ENDS
***************************************
.SUBCKT ICV_43
** N=2 EP=0 IP=2 FDC=0
.ENDS
***************************************
.SUBCKT MGC_via2_1x2_HV
** N=1 EP=0 IP=0 FDC=0
.ENDS
***************************************
.SUBCKT ICV_44 1 2 3 4 5 6 7 8 9
** N=9 EP=9 IP=13 FDC=28
X1 3 4 5 6 2 1 7 8 9 FA_X1 $T=190 0 0 0 $X=75 $Y=-115
.ENDS
***************************************
.SUBCKT ICV_45 1 2 3 4 5 6 7 8 9
** N=9 EP=9 IP=13 FDC=28
X1 3 4 5 6 2 1 7 8 9 FA_X1 $T=380 0 0 0 $X=265 $Y=-115
.ENDS
***************************************
.SUBCKT ICV_46
** N=2 EP=0 IP=2 FDC=0
.ENDS
***************************************
.SUBCKT ICV_47 1 2 3 4 5 6 7
** N=7 EP=7 IP=11 FDC=4
X0 1 2 3 4 5 6 7 NOR2_X1 $T=0 0 0 0 $X=-115 $Y=-115
.ENDS
***************************************
.SUBCKT ICV_48 1 2 3 4 5 6 7 8 9 10
** N=10 EP=10 IP=14 FDC=32
X0 1 2 3 4 5 9 10 DLH_X1 $T=0 0 0 0 $X=-115 $Y=-115
X1 6 7 8 4 5 9 10 DLH_X1 $T=1900 0 0 0 $X=1785 $Y=-115
.ENDS
***************************************
.SUBCKT FILLCELL_X16
** N=4 EP=0 IP=0 FDC=0
*.CALIBRE ISOLATED NETS: VSS VDD
.ENDS
***************************************
.SUBCKT ICV_49
** N=4 EP=0 IP=8 FDC=0
.ENDS
***************************************
.SUBCKT ICV_50
** N=1 EP=0 IP=2 FDC=0
.ENDS
***************************************
.SUBCKT MGC_via1_1x2_VH
** N=1 EP=0 IP=0 FDC=0
.ENDS
***************************************
.SUBCKT MGC_via1_2x1_VH_0
** N=1 EP=0 IP=0 FDC=0
.ENDS
***************************************
.SUBCKT MGC_via1_2x1_HH
** N=1 EP=0 IP=0 FDC=0
.ENDS
***************************************
.SUBCKT ICV_51
** N=4 EP=0 IP=8 FDC=0
.ENDS
***************************************
.SUBCKT ICV_52
** N=4 EP=0 IP=8 FDC=0
.ENDS
***************************************
.SUBCKT ICV_53
** N=4 EP=0 IP=8 FDC=0
.ENDS
***************************************
.SUBCKT ICV_54
** N=2 EP=0 IP=2 FDC=0
.ENDS
***************************************
.SUBCKT ICV_55
** N=2 EP=0 IP=2 FDC=0
.ENDS
***************************************
.SUBCKT ICV_56 1 2 3 4 5 6 7
** N=7 EP=7 IP=11 FDC=4
X0 1 2 3 4 5 6 7 NOR2_X1 $T=0 0 0 0 $X=-115 $Y=-115
.ENDS
***************************************
.SUBCKT AOI211_X1 C2 C1 B VSS A ZN VDD 8 9
** N=12 EP=9 IP=0 FDC=8
M0 12 C2 VSS 8 NMOS_VTL L=5e-08 W=4.15e-07 AD=5.81e-14 AS=4.3575e-14 PD=1.11e-06 PS=1.04e-06 $X=185 $Y=90 $D=1
M1 ZN C1 12 8 NMOS_VTL L=5e-08 W=4.15e-07 AD=5.81e-14 AS=5.81e-14 PD=1.11e-06 PS=1.11e-06 $X=375 $Y=90 $D=1
M2 VSS B ZN 8 NMOS_VTL L=5e-08 W=4.15e-07 AD=5.81e-14 AS=5.81e-14 PD=1.11e-06 PS=1.11e-06 $X=565 $Y=90 $D=1
M3 ZN A VSS 8 NMOS_VTL L=5e-08 W=4.15e-07 AD=4.3575e-14 AS=5.81e-14 PD=1.04e-06 PS=1.11e-06 $X=755 $Y=90 $D=1
M4 ZN C2 10 9 PMOS_VTL L=5e-08 W=6.3e-07 AD=8.82e-14 AS=6.615e-14 PD=1.54e-06 PS=1.47e-06 $X=185 $Y=680 $D=0
M5 10 C1 ZN 9 PMOS_VTL L=5e-08 W=6.3e-07 AD=8.82e-14 AS=8.82e-14 PD=1.54e-06 PS=1.54e-06 $X=375 $Y=680 $D=0
M6 11 B 10 9 PMOS_VTL L=5e-08 W=6.3e-07 AD=8.82e-14 AS=8.82e-14 PD=1.54e-06 PS=1.54e-06 $X=565 $Y=680 $D=0
M7 VDD A 11 9 PMOS_VTL L=5e-08 W=6.3e-07 AD=6.615e-14 AS=8.82e-14 PD=1.47e-06 PS=1.54e-06 $X=755 $Y=680 $D=0
.ENDS
***************************************
.SUBCKT ICV_57 1 2 3 4 5 6 7
** N=7 EP=7 IP=11 FDC=16
X1 3 4 5 1 2 6 7 DLH_X1 $T=190 0 0 0 $X=75 $Y=-115
.ENDS
***************************************
.SUBCKT ICV_58 1 2 3 4 5 6 7
** N=7 EP=7 IP=11 FDC=4
X1 3 2 4 5 1 6 7 NOR2_X1 $T=190 0 0 0 $X=75 $Y=-115
.ENDS
***************************************
.SUBCKT ICV_59 1 2 3 4 5 6 7 8 9 10
** N=10 EP=10 IP=14 FDC=8
X0 1 2 3 4 5 9 10 NOR2_X1 $T=0 0 0 0 $X=-115 $Y=-115
X1 6 2 7 8 5 9 10 NOR2_X1 $T=570 0 0 0 $X=455 $Y=-115
.ENDS
***************************************
.SUBCKT ICV_60
** N=4 EP=0 IP=8 FDC=0
.ENDS
***************************************
.SUBCKT ICV_61 1 2 3 4 5 6 7
** N=7 EP=7 IP=11 FDC=4
X0 1 2 3 4 5 6 7 NOR2_X1 $T=1710 0 0 0 $X=1595 $Y=-115
.ENDS
***************************************
.SUBCKT ICV_62 1 2 3 4 5 6 7 8 9 10 11 12 13 14
** N=14 EP=14 IP=18 FDC=56
X0 1 2 3 4 5 6 7 13 14 FA_X1 $T=0 0 0 0 $X=-115 $Y=-115
X1 8 9 10 11 5 6 12 13 14 FA_X1 $T=3040 0 0 0 $X=2925 $Y=-115
.ENDS
***************************************
.SUBCKT ICV_63 1 2 3 4 5 6 7
** N=7 EP=7 IP=11 FDC=4
X0 1 2 3 4 5 6 7 NOR2_X1 $T=0 0 0 0 $X=-115 $Y=-115
.ENDS
***************************************
.SUBCKT MGC_via2_2x1_VH
** N=1 EP=0 IP=0 FDC=0
.ENDS
***************************************
.SUBCKT ICV_64 1 2 3 4 5 6 7
** N=7 EP=7 IP=11 FDC=16
X1 3 4 5 1 2 6 7 DLH_X1 $T=0 0 0 0 $X=-115 $Y=-115
.ENDS
***************************************
.SUBCKT ICV_65
** N=4 EP=0 IP=8 FDC=0
.ENDS
***************************************
.SUBCKT ICV_66 1 2 3 4 5 6 7 8 9 10 11 12
** N=12 EP=12 IP=16 FDC=32
X0 1 2 3 4 5 11 12 NOR2_X1 $T=3610 0 1 180 $X=2925 $Y=-115
X1 6 7 8 9 2 5 10 11 12 FA_X1 $T=0 0 0 0 $X=-115 $Y=-115
.ENDS
***************************************
.SUBCKT ICV_67
** N=4 EP=0 IP=8 FDC=0
.ENDS
***************************************
.SUBCKT OR4_X1 A1 A2 A3 A4 VSS VDD ZN 8 9
** N=13 EP=9 IP=0 FDC=10
M0 10 A1 VSS 8 NMOS_VTL L=5e-08 W=2.1e-07 AD=2.94e-14 AS=2.205e-14 PD=7e-07 PS=6.3e-07 $X=145 $Y=90 $D=1
M1 VSS A2 10 8 NMOS_VTL L=5e-08 W=2.1e-07 AD=2.94e-14 AS=2.94e-14 PD=7e-07 PS=7e-07 $X=335 $Y=90 $D=1
M2 10 A3 VSS 8 NMOS_VTL L=5e-08 W=2.1e-07 AD=2.94e-14 AS=2.94e-14 PD=7e-07 PS=7e-07 $X=525 $Y=90 $D=1
M3 VSS A4 10 8 NMOS_VTL L=5e-08 W=2.1e-07 AD=4.375e-14 AS=2.94e-14 PD=1.11e-06 PS=7e-07 $X=715 $Y=90 $D=1
M4 ZN 10 VSS 8 NMOS_VTL L=5e-08 W=4.15e-07 AD=4.3575e-14 AS=4.375e-14 PD=1.04e-06 PS=1.11e-06 $X=905 $Y=90 $D=1
M5 11 A1 10 9 PMOS_VTL L=5e-08 W=3.15e-07 AD=4.41e-14 AS=3.3075e-14 PD=9.1e-07 PS=8.4e-07 $X=145 $Y=995 $D=0
M6 12 A2 11 9 PMOS_VTL L=5e-08 W=3.15e-07 AD=4.41e-14 AS=4.41e-14 PD=9.1e-07 PS=9.1e-07 $X=335 $Y=995 $D=0
M7 13 A3 12 9 PMOS_VTL L=5e-08 W=3.15e-07 AD=4.41e-14 AS=4.41e-14 PD=9.1e-07 PS=9.1e-07 $X=525 $Y=995 $D=0
M8 VDD A4 13 9 PMOS_VTL L=5e-08 W=3.15e-07 AD=6.615e-14 AS=4.41e-14 PD=1.54e-06 PS=9.1e-07 $X=715 $Y=995 $D=0
M9 ZN 10 VDD 9 PMOS_VTL L=5e-08 W=6.3e-07 AD=6.615e-14 AS=6.615e-14 PD=1.47e-06 PS=1.54e-06 $X=905 $Y=680 $D=0
.ENDS
***************************************
.SUBCKT CLKBUF_X3 A VSS VDD Z 5 6
** N=7 EP=6 IP=0 FDC=8
M0 VSS A 7 5 NMOS_VTL L=5e-08 W=1.95e-07 AD=2.73e-14 AS=2.0475e-14 PD=6.7e-07 PS=6e-07 $X=145 $Y=90 $D=1
M1 Z 7 VSS 5 NMOS_VTL L=5e-08 W=1.95e-07 AD=2.73e-14 AS=2.73e-14 PD=6.7e-07 PS=6.7e-07 $X=335 $Y=90 $D=1
M2 VSS 7 Z 5 NMOS_VTL L=5e-08 W=1.95e-07 AD=2.73e-14 AS=2.73e-14 PD=6.7e-07 PS=6.7e-07 $X=525 $Y=90 $D=1