$ Spice netlist generated by v2lvs
$ v2020.1_25.14    Mon Feb 3 16:40:08 PST 2020
*.BUSDELIMITER [ 

.SUBCKT datapath__0_24 M_greatest[23] M_greatest[22] M_greatest[21] 
+ M_greatest[20] M_greatest[19] M_greatest[18] M_greatest[17] M_greatest[16] 
+ M_greatest[15] M_greatest[14] M_greatest[13] M_greatest[12] M_greatest[11] 
+ M_greatest[10] M_greatest[9] M_greatest[8] M_greatest[7] M_greatest[6] 
+ M_greatest[5] M_greatest[4] M_greatest[3] M_greatest[2] M_greatest[1] 
+ M_greatest[0] p_0[31] p_0[30] p_0[29] p_0[28] p_0[27] p_0[26] p_0[25] p_0[24] 
+ p_0[23] p_0[22] p_0[21] p_0[20] p_0[19] p_0[18] p_0[17] p_0[16] p_0[15] 
+ p_0[14] p_0[13] p_0[12] p_0[11] p_0[10] p_0[9] p_0[8] p_0[7] p_0[6] p_0[5] 
+ p_0[4] p_0[3] p_0[2] p_0[1] p_0[0] 
Xi_46 INV_X1 $PINS ZN=n_23 A=M_greatest[19] 
Xi_45 INV_X1 $PINS ZN=n_22 A=M_greatest[15] 
Xi_44 INV_X1 $PINS ZN=n_21 A=M_greatest[11] 
Xi_43 OR3_X1 $PINS ZN=n_20 A1=M_greatest[2] A2=M_greatest[1] A3=M_greatest[0] 
Xi_42 OR2_X1 $PINS ZN=n_19 A1=n_20 A2=M_greatest[3] 
Xi_41 OR2_X1 $PINS ZN=n_18 A1=n_19 A2=M_greatest[4] 
Xi_40 OR3_X1 $PINS ZN=n_17 A1=n_18 A2=M_greatest[5] A3=M_greatest[6] 
Xi_39 OR2_X1 $PINS ZN=n_16 A1=n_17 A2=M_greatest[7] 
Xi_38 OR3_X1 $PINS ZN=n_15 A1=n_16 A2=M_greatest[8] A3=M_greatest[9] 
Xi_37 NOR2_X1 $PINS ZN=n_14 A1=n_15 A2=M_greatest[10] 
Xi_36 NAND2_X1 $PINS ZN=n_13 A1=n_14 A2=n_21 
Xi_35 OR2_X1 $PINS ZN=n_12 A1=n_13 A2=M_greatest[12] 
Xi_34 NOR2_X1 $PINS ZN=n_11 A1=n_12 A2=M_greatest[13] 
Xi_33 NOR3_X1 $PINS ZN=n_10 A1=n_12 A2=M_greatest[13] A3=M_greatest[14] 
Xi_32 NAND2_X1 $PINS ZN=n_9 A1=n_10 A2=n_22 
Xi_31 OR2_X1 $PINS ZN=n_8 A1=n_9 A2=M_greatest[16] 
Xi_30 NOR2_X1 $PINS ZN=n_7 A1=n_8 A2=M_greatest[17] 
Xi_29 NOR3_X1 $PINS ZN=n_6 A1=n_8 A2=M_greatest[17] A3=M_greatest[18] 
Xi_28 NAND2_X1 $PINS ZN=n_5 A1=n_6 A2=n_23 
Xi_27 OR2_X1 $PINS ZN=n_4 A1=n_5 A2=M_greatest[20] 
Xi_26 NOR2_X1 $PINS ZN=n_3 A1=n_4 A2=M_greatest[21] 
Xi_25 NOR3_X1 $PINS ZN=p_0[23] A1=n_4 A2=M_greatest[21] A3=M_greatest[22] 
Xi_24 XNOR2_X1 $PINS ZN=p_0[22] A=M_greatest[22] B=n_3 
Xi_23 XOR2_X1 $PINS Z=p_0[21] A=M_greatest[21] B=n_4 
Xi_22 XOR2_X1 $PINS Z=p_0[20] A=M_greatest[20] B=n_5 
Xi_21 XNOR2_X1 $PINS ZN=p_0[19] A=M_greatest[19] B=n_6 
Xi_20 XNOR2_X1 $PINS ZN=p_0[18] A=M_greatest[18] B=n_7 
Xi_19 XOR2_X1 $PINS Z=p_0[17] A=M_greatest[17] B=n_8 
Xi_18 XOR2_X1 $PINS Z=p_0[16] A=M_greatest[16] B=n_9 
Xi_17 XNOR2_X1 $PINS ZN=p_0[15] A=M_greatest[15] B=n_10 
Xi_16 XNOR2_X1 $PINS ZN=p_0[14] A=M_greatest[14] B=n_11 
Xi_15 XOR2_X1 $PINS Z=p_0[13] A=M_greatest[13] B=n_12 
Xi_14 XOR2_X1 $PINS Z=p_0[12] A=M_greatest[12] B=n_13 
Xi_13 XNOR2_X1 $PINS ZN=p_0[11] A=M_greatest[11] B=n_14 
Xi_12 XOR2_X1 $PINS Z=p_0[10] A=M_greatest[10] B=n_15 
Xi_11 OAI21_X1 $PINS ZN=n_2 A=M_greatest[9] B1=n_16 B2=M_greatest[8] 
Xi_10 AND2_X1 $PINS ZN=p_0[9] A1=n_15 A2=n_2 
Xi_9 XOR2_X1 $PINS Z=p_0[8] A=M_greatest[8] B=n_16 
Xi_8 XOR2_X1 $PINS Z=p_0[7] A=M_greatest[7] B=n_17 
Xi_7 OAI21_X1 $PINS ZN=n_1 A=M_greatest[6] B1=n_18 B2=M_greatest[5] 
Xi_6 AND2_X1 $PINS ZN=p_0[6] A1=n_17 A2=n_1 
Xi_5 XOR2_X1 $PINS Z=p_0[5] A=M_greatest[5] B=n_18 
Xi_4 XOR2_X1 $PINS Z=p_0[4] A=M_greatest[4] B=n_19 
Xi_3 XOR2_X1 $PINS Z=p_0[3] A=M_greatest[3] B=n_20 
Xi_2 OAI21_X1 $PINS ZN=n_0 A=M_greatest[2] B1=M_greatest[1] B2=M_greatest[0] 
Xi_1 AND2_X1 $PINS ZN=p_0[2] A1=n_20 A2=n_0 
Xi_0 XOR2_X1 $PINS Z=p_0[1] A=M_greatest[1] B=M_greatest[0] 
.ENDS

.SUBCKT datapath__0_21 M_shitfed[23] M_shitfed[22] M_shitfed[21] M_shitfed[20] 
+ M_shitfed[19] M_shitfed[18] M_shitfed[17] M_shitfed[16] M_shitfed[15] 
+ M_shitfed[14] M_shitfed[13] M_shitfed[12] M_shitfed[11] M_shitfed[10] 
+ M_shitfed[9] M_shitfed[8] M_shitfed[7] M_shitfed[6] M_shitfed[5] M_shitfed[4] 
+ M_shitfed[3] M_shitfed[2] M_shitfed[1] M_shitfed[0] p_0[31] p_0[30] p_0[29] 
+ p_0[28] p_0[27] p_0[26] p_0[25] p_0[24] p_0[23] p_0[22] p_0[21] p_0[20] 
+ p_0[19] p_0[18] p_0[17] p_0[16] p_0[15] p_0[14] p_0[13] p_0[12] p_0[11] 
+ p_0[10] p_0[9] p_0[8] p_0[7] p_0[6] p_0[5] p_0[4] p_0[3] p_0[2] p_0[1] p_0[0] 
Xi_47 INV_X1 $PINS ZN=n_23 A=M_shitfed[15] 
Xi_46 INV_X1 $PINS ZN=n_22 A=M_shitfed[11] 
Xi_45 OR3_X1 $PINS ZN=n_21 A1=M_shitfed[2] A2=M_shitfed[1] A3=M_shitfed[0] 
Xi_44 OR2_X1 $PINS ZN=n_20 A1=n_21 A2=M_shitfed[3] 
Xi_43 OR2_X1 $PINS ZN=n_19 A1=n_20 A2=M_shitfed[4] 
Xi_42 OR3_X1 $PINS ZN=n_18 A1=n_19 A2=M_shitfed[5] A3=M_shitfed[6] 
Xi_41 OR2_X1 $PINS ZN=n_17 A1=n_18 A2=M_shitfed[7] 
Xi_40 OR3_X1 $PINS ZN=n_16 A1=n_17 A2=M_shitfed[8] A3=M_shitfed[9] 
Xi_39 NOR2_X1 $PINS ZN=n_15 A1=n_16 A2=M_shitfed[10] 
Xi_38 NAND2_X1 $PINS ZN=n_14 A1=n_15 A2=n_22 
Xi_37 OR2_X1 $PINS ZN=n_13 A1=n_14 A2=M_shitfed[12] 
Xi_36 NOR2_X1 $PINS ZN=n_12 A1=n_13 A2=M_shitfed[13] 
Xi_35 NOR3_X1 $PINS ZN=n_11 A1=n_13 A2=M_shitfed[13] A3=M_shitfed[14] 
Xi_34 NAND2_X1 $PINS ZN=n_10 A1=n_11 A2=n_23 
Xi_33 OR2_X1 $PINS ZN=n_9 A1=n_10 A2=M_shitfed[16] 
Xi_32 OR2_X1 $PINS ZN=n_8 A1=n_9 A2=M_shitfed[17] 
Xi_31 OR3_X1 $PINS ZN=n_7 A1=n_8 A2=M_shitfed[18] A3=M_shitfed[19] 
Xi_30 OR3_X1 $PINS ZN=n_6 A1=n_7 A2=M_shitfed[20] A3=M_shitfed[21] 
Xi_29 OR3_X1 $PINS ZN=p_0[31] A1=n_6 A2=M_shitfed[22] A3=M_shitfed[23] 
Xi_28 OAI21_X1 $PINS ZN=n_5 A=M_shitfed[23] B1=n_6 B2=M_shitfed[22] 
Xi_27 AND2_X1 $PINS ZN=p_0[23] A1=p_0[31] A2=n_5 
Xi_26 XOR2_X1 $PINS Z=p_0[22] A=M_shitfed[22] B=n_6 
Xi_25 OAI21_X1 $PINS ZN=n_4 A=M_shitfed[21] B1=n_7 B2=M_shitfed[20] 
Xi_24 AND2_X1 $PINS ZN=p_0[21] A1=n_6 A2=n_4 
Xi_23 XOR2_X1 $PINS Z=p_0[20] A=M_shitfed[20] B=n_7 
Xi_22 OAI21_X1 $PINS ZN=n_3 A=M_shitfed[19] B1=n_8 B2=M_shitfed[18] 
Xi_21 AND2_X1 $PINS ZN=p_0[19] A1=n_7 A2=n_3 
Xi_20 XOR2_X1 $PINS Z=p_0[18] A=M_shitfed[18] B=n_8 
Xi_19 XOR2_X1 $PINS Z=p_0[17] A=M_shitfed[17] B=n_9 
Xi_18 XOR2_X1 $PINS Z=p_0[16] A=M_shitfed[16] B=n_10 
Xi_17 XNOR2_X1 $PINS ZN=p_0[15] A=M_shitfed[15] B=n_11 
Xi_16 XNOR2_X1 $PINS ZN=p_0[14] A=M_shitfed[14] B=n_12 
Xi_15 XOR2_X1 $PINS Z=p_0[13] A=M_shitfed[13] B=n_13 
Xi_14 XOR2_X1 $PINS Z=p_0[12] A=M_shitfed[12] B=n_14 
Xi_13 XNOR2_X1 $PINS ZN=p_0[11] A=M_shitfed[11] B=n_15 
Xi_12 XOR2_X1 $PINS Z=p_0[10] A=M_shitfed[10] B=n_16 
Xi_11 OAI21_X1 $PINS ZN=n_2 A=M_shitfed[9] B1=n_17 B2=M_shitfed[8] 
Xi_10 AND2_X1 $PINS ZN=p_0[9] A1=n_16 A2=n_2 
Xi_9 XOR2_X1 $PINS Z=p_0[8] A=M_shitfed[8] B=n_17 
Xi_8 XOR2_X1 $PINS Z=p_0[7] A=M_shitfed[7] B=n_18 
Xi_7 OAI21_X1 $PINS ZN=n_1 A=M_shitfed[6] B1=n_19 B2=M_shitfed[5] 
Xi_6 AND2_X1 $PINS ZN=p_0[6] A1=n_18 A2=n_1 
Xi_5 XOR2_X1 $PINS Z=p_0[5] A=M_shitfed[5] B=n_19 
Xi_4 XOR2_X1 $PINS Z=p_0[4] A=M_shitfed[4] B=n_20 
Xi_3 XOR2_X1 $PINS Z=p_0[3] A=M_shitfed[3] B=n_21 
Xi_2 OAI21_X1 $PINS ZN=n_0 A=M_shitfed[2] B1=M_shitfed[1] B2=M_shitfed[0] 
Xi_1 AND2_X1 $PINS ZN=p_0[2] A1=n_21 A2=n_0 
Xi_0 XOR2_X1 $PINS Z=p_0[1] A=M_shitfed[1] B=M_shitfed[0] 
.ENDS

.SUBCKT datapath__0_7 M_result[31] M_result[30] M_result[29] M_result[28] 
+ M_result[27] M_result[26] M_result[25] M_result[24] M_result[23] M_result[22] 
+ M_result[21] M_result[20] M_result[19] M_result[18] M_result[17] M_result[16] 
+ M_result[15] M_result[14] M_result[13] M_result[12] M_result[11] M_result[10] 
+ M_result[9] M_result[8] M_result[7] M_result[6] M_result[5] M_result[4] 
+ M_result[3] M_result[2] M_result[1] M_result[0] p_0[31] p_0[30] p_0[29] 
+ p_0[28] p_0[27] p_0[26] p_0[25] p_0[24] p_0[23] p_0[22] p_0[21] p_0[20] 
+ p_0[19] p_0[18] p_0[17] p_0[16] p_0[15] p_0[14] p_0[13] p_0[12] p_0[11] 
+ p_0[10] p_0[9] p_0[8] p_0[7] p_0[6] p_0[5] p_0[4] p_0[3] p_0[2] p_0[1] p_0[0] 
Xi_53 INV_X1 $PINS ZN=n_27 A=M_result[16] 
Xi_52 INV_X1 $PINS ZN=n_26 A=M_result[14] 
Xi_51 INV_X1 $PINS ZN=n_25 A=M_result[11] 
Xi_50 OR3_X1 $PINS ZN=n_24 A1=M_result[2] A2=M_result[1] A3=M_result[0] 
Xi_49 OR2_X1 $PINS ZN=n_23 A1=n_24 A2=M_result[3] 
Xi_48 OR2_X1 $PINS ZN=n_22 A1=n_23 A2=M_result[4] 
Xi_47 OR3_X1 $PINS ZN=n_21 A1=n_22 A2=M_result[5] A3=M_result[6] 
Xi_46 OR2_X1 $PINS ZN=n_20 A1=n_21 A2=M_result[7] 
Xi_45 OR3_X1 $PINS ZN=n_19 A1=n_20 A2=M_result[8] A3=M_result[9] 
Xi_44 NOR2_X1 $PINS ZN=n_18 A1=n_19 A2=M_result[10] 
Xi_43 NAND2_X1 $PINS ZN=n_17 A1=n_18 A2=n_25 
Xi_42 NOR2_X1 $PINS ZN=n_16 A1=n_17 A2=M_result[12] 
Xi_41 NOR3_X1 $PINS ZN=n_15 A1=n_17 A2=M_result[12] A3=M_result[13] 
Xi_40 NAND2_X1 $PINS ZN=n_14 A1=n_15 A2=n_26 
Xi_39 NOR2_X1 $PINS ZN=n_13 A1=n_14 A2=M_result[15] 
Xi_38 NAND2_X1 $PINS ZN=n_12 A1=n_13 A2=n_27 
Xi_37 OR2_X1 $PINS ZN=n_11 A1=n_12 A2=M_result[17] 
Xi_36 OR2_X1 $PINS ZN=n_10 A1=n_11 A2=M_result[18] 
Xi_35 NOR3_X1 $PINS ZN=n_9 A1=n_10 A2=M_result[19] A3=M_result[20] 
Xi_34 INV_X1 $PINS ZN=n_8 A=n_9 
Xi_33 OR3_X1 $PINS ZN=n_7 A1=n_8 A2=M_result[21] A3=M_result[22] 
Xi_32 NOR2_X1 $PINS ZN=n_6 A1=n_7 A2=M_result[23] 
Xi_31 NOR3_X1 $PINS ZN=n_5 A1=n_7 A2=M_result[23] A3=M_result[24] 
Xi_30 XNOR2_X1 $PINS ZN=p_0[25] A=M_result[25] B=n_5 
Xi_29 XNOR2_X1 $PINS ZN=p_0[24] A=M_result[24] B=n_6 
Xi_28 XOR2_X1 $PINS Z=p_0[23] A=M_result[23] B=n_7 
Xi_27 OAI21_X1 $PINS ZN=n_4 A=M_result[22] B1=n_8 B2=M_result[21] 
Xi_26 AND2_X1 $PINS ZN=p_0[22] A1=n_7 A2=n_4 
Xi_25 XNOR2_X1 $PINS ZN=p_0[21] A=M_result[21] B=n_9 
Xi_24 OAI21_X1 $PINS ZN=n_3 A=M_result[20] B1=n_10 B2=M_result[19] 
Xi_23 AND2_X1 $PINS ZN=p_0[20] A1=n_8 A2=n_3 
Xi_22 XOR2_X1 $PINS Z=p_0[19] A=M_result[19] B=n_10 
Xi_21 XOR2_X1 $PINS Z=p_0[18] A=M_result[18] B=n_11 
Xi_20 XOR2_X1 $PINS Z=p_0[17] A=M_result[17] B=n_12 
Xi_19 XNOR2_X1 $PINS ZN=p_0[16] A=M_result[16] B=n_13 
Xi_18 XOR2_X1 $PINS Z=p_0[15] A=M_result[15] B=n_14 
Xi_17 XNOR2_X1 $PINS ZN=p_0[14] A=M_result[14] B=n_15 
Xi_16 XNOR2_X1 $PINS ZN=p_0[13] A=M_result[13] B=n_16 
Xi_15 XOR2_X1 $PINS Z=p_0[12] A=M_result[12] B=n_17 
Xi_14 XNOR2_X1 $PINS ZN=p_0[11] A=M_result[11] B=n_18 
Xi_13 XOR2_X1 $PINS Z=p_0[10] A=M_result[10] B=n_19 
Xi_12 OAI21_X1 $PINS ZN=n_2 A=M_result[9] B1=n_20 B2=M_result[8] 
Xi_11 AND2_X1 $PINS ZN=p_0[9] A1=n_19 A2=n_2 
Xi_10 XOR2_X1 $PINS Z=p_0[8] A=M_result[8] B=n_20 
Xi_9 XOR2_X1 $PINS Z=p_0[7] A=M_result[7] B=n_21 
Xi_8 OAI21_X1 $PINS ZN=n_1 A=M_result[6] B1=n_22 B2=M_result[5] 
Xi_7 AND2_X1 $PINS ZN=p_0[6] A1=n_21 A2=n_1 
Xi_6 XOR2_X1 $PINS Z=p_0[5] A=M_result[5] B=n_22 
Xi_5 XOR2_X1 $PINS Z=p_0[4] A=M_result[4] B=n_23 
Xi_4 XOR2_X1 $PINS Z=p_0[3] A=M_result[3] B=n_24 
Xi_3 OAI21_X1 $PINS ZN=n_0 A=M_result[2] B1=M_result[1] B2=M_result[0] 
Xi_2 AND2_X1 $PINS ZN=p_0[2] A1=n_24 A2=n_0 
Xi_1 XOR2_X1 $PINS Z=p_0[1] A=M_result[1] B=M_result[0] 
Xi_0 NOR2_X1 $PINS ZN=p_0[28] A1=M_result[25] A2=n_5 
.ENDS

.SUBCKT datapath__0_1 B[31] B[30] B[29] B[28] B[27] B[26] B[25] B[24] B[23] 
+ B[22] B[21] B[20] B[19] B[18] B[17] B[16] B[15] B[14] B[13] B[12] B[11] B[10] 
+ B[9] B[8] B[7] B[6] B[5] B[4] B[3] B[2] B[1] B[0] CIN A[31] A[30] A[29] A[28] 
+ A[27] A[26] A[25] A[24] A[23] A[22] A[21] A[20] A[19] A[18] A[17] A[16] A[15] 
+ A[14] A[13] A[12] A[11] A[10] A[9] A[8] A[7] A[6] A[5] A[4] A[3] A[2] A[1] 
+ A[0] p_0[32] p_0[31] p_0[30] p_0[29] p_0[28] p_0[27] p_0[26] p_0[25] p_0[24] 
+ p_0[23] p_0[22] p_0[21] p_0[20] p_0[19] p_0[18] p_0[17] p_0[16] p_0[15] 
+ p_0[14] p_0[13] p_0[12] p_0[11] p_0[10] p_0[9] p_0[8] p_0[7] p_0[6] p_0[5] 
+ p_0[4] p_0[3] p_0[2] p_0[1] p_0[0] 
Xi_25 FA_X1 $PINS CO=n_25 S=CLOCK_spc__n1 A=B[25] B=A[25] CI=n_24 
Xi_24 FA_X1 $PINS CO=n_24 S=p_0[24] A=B[25] B=A[25] CI=n_23 
Xi_23 FA_X1 $PINS CO=n_23 S=p_0[23] A=B[23] B=A[23] CI=n_22 
Xi_22 FA_X1 $PINS CO=n_22 S=p_0[22] A=B[22] B=A[22] CI=n_21 
Xi_21 FA_X1 $PINS CO=n_21 S=p_0[21] A=B[21] B=A[21] CI=n_20 
Xi_20 FA_X1 $PINS CO=n_20 S=p_0[20] A=B[20] B=A[20] CI=n_19 
Xi_19 FA_X1 $PINS CO=n_19 S=p_0[19] A=B[19] B=A[19] CI=n_18 
Xi_18 FA_X1 $PINS CO=n_18 S=p_0[18] A=B[18] B=A[18] CI=n_17 
Xi_17 FA_X1 $PINS CO=n_17 S=p_0[17] A=B[17] B=A[17] CI=n_16 
Xi_16 FA_X1 $PINS CO=n_16 S=p_0[16] A=B[16] B=A[16] CI=n_15 
Xi_15 FA_X1 $PINS CO=n_15 S=p_0[15] A=B[15] B=A[15] CI=n_14 
Xi_14 FA_X1 $PINS CO=n_14 S=p_0[14] A=B[14] B=A[14] CI=n_13 
Xi_13 FA_X1 $PINS CO=n_13 S=p_0[13] A=B[13] B=A[13] CI=n_12 
Xi_12 FA_X1 $PINS CO=n_12 S=p_0[12] A=B[12] B=A[12] CI=n_11 
Xi_11 FA_X1 $PINS CO=n_11 S=p_0[11] A=B[11] B=A[11] CI=n_10 
Xi_10 FA_X1 $PINS CO=n_10 S=p_0[10] A=B[10] B=A[10] CI=n_9 
Xi_9 FA_X1 $PINS CO=n_9 S=p_0[9] A=B[9] B=A[9] CI=n_8 
Xi_8 FA_X1 $PINS CO=n_8 S=p_0[8] A=B[8] B=A[8] CI=n_7 
Xi_7 FA_X1 $PINS CO=n_7 S=p_0[7] A=B[7] B=A[7] CI=n_6 
Xi_6 FA_X1 $PINS CO=n_6 S=p_0[6] A=B[6] B=A[6] CI=n_5 
Xi_5 FA_X1 $PINS CO=n_5 S=p_0[5] A=B[5] B=A[5] CI=n_4 
Xi_4 FA_X1 $PINS CO=n_4 S=p_0[4] A=B[4] B=A[4] CI=n_3 
Xi_3 FA_X1 $PINS CO=n_3 S=p_0[3] A=B[3] B=A[3] CI=n_2 
Xi_2 FA_X1 $PINS CO=n_2 S=p_0[2] A=B[2] B=A[2] CI=n_1 
Xi_1 FA_X1 $PINS CO=n_1 S=p_0[1] A=B[1] B=A[1] CI=n_0 
Xi_0 FA_X1 $PINS CO=n_0 S=p_0[0] A=VSS B=A[0] CI=B[0] 
XCLOCK_spc__c1 CLKBUF_X2 $PINS Z=p_0[25] A=CLOCK_spc__n1 
.ENDS

.SUBCKT VA__parameterized0 A[31] A[30] A[29] A[28] A[27] A[26] A[25] A[24] 
+ A[23] A[22] A[21] A[20] A[19] A[18] A[17] A[16] A[15] A[14] A[13] A[12] A[11] 
+ A[10] A[9] A[8] A[7] A[6] A[5] A[4] A[3] A[2] A[1] A[0] B[31] B[30] B[29] 
+ B[28] B[27] B[26] B[25] B[24] B[23] B[22] B[21] B[20] B[19] B[18] B[17] B[16] 
+ B[15] B[14] B[13] B[12] B[11] B[10] B[9] B[8] B[7] B[6] B[5] B[4] B[3] B[2] 
+ B[1] B[0] CIN SUM[31] SUM[30] SUM[29] SUM[28] SUM[27] SUM[26] SUM[25] SUM[24] 
+ SUM[23] SUM[22] SUM[21] SUM[20] SUM[19] SUM[18] SUM[17] SUM[16] SUM[15] 
+ SUM[14] SUM[13] SUM[12] SUM[11] SUM[10] SUM[9] SUM[8] SUM[7] SUM[6] SUM[5] 
+ SUM[4] SUM[3] SUM[2] SUM[1] SUM[0] COUT OVF 
Xi_0 datapath__0_1 $PINS p_0[32]=uc_14 p_0[31]=uc_15 p_0[30]=uc_16 
+ p_0[29]=uc_17 p_0[28]=uc_18 p_0[27]=uc_19 p_0[26]=uc_20 p_0[25]=SUM[31] 
+ p_0[24]=SUM[24] p_0[23]=SUM[23] p_0[22]=SUM[22] p_0[21]=SUM[21] p_0[20]=SUM[20] 
+ p_0[19]=SUM[19] p_0[18]=SUM[18] p_0[17]=SUM[17] p_0[16]=SUM[16] p_0[15]=SUM[15] 
+ p_0[14]=SUM[14] p_0[13]=SUM[13] p_0[12]=SUM[12] p_0[11]=SUM[11] p_0[10]=SUM[10] 
+ p_0[9]=SUM[9] p_0[8]=SUM[8] p_0[7]=SUM[7] p_0[6]=SUM[6] p_0[5]=SUM[5] 
+ p_0[4]=SUM[4] p_0[3]=SUM[3] p_0[2]=SUM[2] p_0[1]=SUM[1] p_0[0]=SUM[0] 
+ A[31]=uc_7 A[30]=uc_8 A[29]=uc_9 A[28]=uc_10 A[27]=uc_11 A[26]=uc_12 
+ A[25]=A[31] A[24]=uc_13 A[23]=A[23] A[22]=A[22] A[21]=A[21] A[20]=A[20] 
+ A[19]=A[19] A[18]=A[18] A[17]=A[17] A[16]=A[16] A[15]=A[15] A[14]=A[14] 
+ A[13]=A[13] A[12]=A[12] A[11]=A[11] A[10]=A[10] A[9]=A[9] A[8]=A[8] A[7]=A[7] 
+ A[6]=A[6] A[5]=A[5] A[4]=A[4] A[3]=A[3] A[2]=A[2] A[1]=A[1] A[0]=A[0] 
+ B[31]=uc_0 B[30]=uc_1 B[29]=uc_2 B[28]=uc_3 B[27]=uc_4 B[26]=uc_5 B[25]=B[31] 
+ B[24]=uc_6 B[23]=B[23] B[22]=B[22] B[21]=B[21] B[20]=B[20] B[19]=B[19] 
+ B[18]=B[18] B[17]=B[17] B[16]=B[16] B[15]=B[15] B[14]=B[14] B[13]=B[13] 
+ B[12]=B[12] B[11]=B[11] B[10]=B[10] B[9]=B[9] B[8]=B[8] B[7]=B[7] B[6]=B[6] 
+ B[5]=B[5] B[4]=B[4] B[3]=B[3] B[2]=B[2] B[1]=B[1] B[0]=B[0] 
.ENDS

.SUBCKT datapath B[7] B[6] B[5] B[4] B[3] B[2] B[1] B[0] CIN A[7] A[6] A[5] 
+ A[4] A[3] A[2] A[1] A[0] p_0[8] p_0[7] p_0[6] p_0[5] p_0[4] p_0[3] p_0[2] 
+ p_0[1] p_0[0] 
Xi_7 FA_X1 $PINS CO=n_7 S=p_0[7] A=B[7] B=A[7] CI=n_6 
Xi_6 FA_X1 $PINS CO=n_6 S=p_0[6] A=B[6] B=A[6] CI=n_5 
Xi_5 FA_X1 $PINS CO=n_5 S=p_0[5] A=B[5] B=A[5] CI=n_4 
Xi_4 FA_X1 $PINS CO=n_4 S=p_0[4] A=B[4] B=A[4] CI=n_3 
Xi_3 FA_X1 $PINS CO=n_3 S=p_0[3] A=B[3] B=A[3] CI=n_2 
Xi_2 FA_X1 $PINS CO=n_2 S=p_0[2] A=B[2] B=A[2] CI=n_1 
Xi_1 FA_X1 $PINS CO=n_1 S=p_0[1] A=B[1] B=A[1] CI=n_0 
Xi_0 FA_X1 $PINS CO=n_0 S=p_0[0] A=VSS B=A[0] CI=B[0] 
.ENDS

.SUBCKT VA A[7] A[6] A[5] A[4] A[3] A[2] A[1] A[0] B[7] B[6] B[5] B[4] B[3] 
+ B[2] B[1] B[0] CIN SUM[7] SUM[6] SUM[5] SUM[4] SUM[3] SUM[2] SUM[1] SUM[0] 
+ COUT OVF 
Xi_0 datapath $PINS p_0[8]=uc_0 p_0[7]=SUM[7] p_0[6]=SUM[6] p_0[5]=SUM[5] 
+ p_0[4]=SUM[4] p_0[3]=SUM[3] p_0[2]=SUM[2] p_0[1]=SUM[1] p_0[0]=SUM[0] A[7]=A[7] 
+ A[6]=A[6] A[5]=A[5] A[4]=A[4] A[3]=A[3] A[2]=A[2] A[1]=A[1] A[0]=A[0] B[7]=B[7] 
+ B[6]=B[6] B[5]=B[5] B[4]=B[4] B[3]=B[3] B[2]=B[2] B[1]=B[1] B[0]=B[0] 
.ENDS

.SUBCKT FPU_VA A[31] A[30] A[29] A[28] A[27] A[26] A[25] A[24] A[23] A[22] 
+ A[21] A[20] A[19] A[18] A[17] A[16] A[15] A[14] A[13] A[12] A[11] A[10] A[9] 
+ A[8] A[7] A[6] A[5] A[4] A[3] A[2] A[1] A[0] B[31] B[30] B[29] B[28] B[27] 
+ B[26] B[25] B[24] B[23] B[22] B[21] B[20] B[19] B[18] B[17] B[16] B[15] B[14] 
+ B[13] B[12] B[11] B[10] B[9] B[8] B[7] B[6] B[5] B[4] B[3] B[2] B[1] B[0] 
+ SUM[31] SUM[30] SUM[29] SUM[28] SUM[27] SUM[26] SUM[25] SUM[24] SUM[23] 
+ SUM[22] SUM[21] SUM[20] SUM[19] SUM[18] SUM[17] SUM[16] SUM[15] SUM[14] 
+ SUM[13] SUM[12] SUM[11] SUM[10] SUM[9] SUM[8] SUM[7] SUM[6] SUM[5] SUM[4] 
+ SUM[3] SUM[2] SUM[1] SUM[0] 
Xi_0_0_674 INV_X1 $PINS ZN=n_0_0_546 A=B[31] 
Xi_0_0_673 INV_X1 $PINS ZN=n_0_0_545 A=B[29] 
Xi_0_0_672 INV_X1 $PINS ZN=n_0_0_544 A=B[28] 
Xi_0_0_671 INV_X1 $PINS ZN=n_0_0_543 A=B[27] 
Xi_0_0_670 INV_X1 $PINS ZN=n_0_0_542 A=B[26] 
Xi_0_0_669 INV_X1 $PINS ZN=n_0_0_541 A=B[25] 
Xi_0_0_668 INV_X1 $PINS ZN=n_0_0_540 A=B[24] 
Xi_0_0_667 INV_X1 $PINS ZN=n_0_0_539 A=B[23] 
Xi_0_0_666 INV_X1 $PINS ZN=n_0_0_538 A=B[21] 
Xi_0_0_665 INV_X1 $PINS ZN=n_0_0_537 A=B[15] 
Xi_0_0_664 INV_X1 $PINS ZN=n_0_0_536 A=B[7] 
Xi_0_0_663 INV_X1 $PINS ZN=n_0_0_535 A=A[31] 
Xi_0_0_662 INV_X1 $PINS ZN=n_0_0_534 A=A[30] 
Xi_0_0_661 INV_X1 $PINS ZN=n_0_0_533 A=A[29] 
Xi_0_0_660 INV_X1 $PINS ZN=n_0_0_532 A=A[28] 
Xi_0_0_659 INV_X1 $PINS ZN=n_0_0_531 A=A[27] 
Xi_0_0_658 INV_X1 $PINS ZN=n_0_0_530 A=A[26] 
Xi_0_0_657 INV_X1 $PINS ZN=n_0_0_529 A=A[25] 
Xi_0_0_656 INV_X1 $PINS ZN=n_0_0_528 A=A[24] 
Xi_0_0_655 INV_X1 $PINS ZN=n_0_0_527 A=A[23] 
Xi_0_0_654 INV_X1 $PINS ZN=n_0_0_526 A=A[21] 
Xi_0_0_653 INV_X1 $PINS ZN=n_0_0_525 A=A[15] 
Xi_0_0_652 INV_X1 $PINS ZN=n_0_0_524 A=A[7] 
Xi_0_0_651 INV_X1 $PINS ZN=n_0_0_523 A=E_difference[3] 
Xi_0_0_650 INV_X1 $PINS ZN=n_0_0_522 A=E_difference[2] 
Xi_0_0_649 INV_X1 $PINS ZN=n_0_0_521 A=E_difference[1] 
Xi_0_0_648 INV_X1 $PINS ZN=n_0_0_520 A=E_difference[0] 
Xi_0_0_647 INV_X1 $PINS ZN=n_0_0_519 A=SUM[31] 
Xi_0_0_646 INV_X1 $PINS ZN=n_0_0_518 A=n_0_25 
Xi_0_0_645 INV_X1 $PINS ZN=n_0_0_517 A=n_0_45 
Xi_0_0_644 INV_X1 $PINS ZN=n_0_0_516 A=n_0_44 
Xi_0_0_643 INV_X1 $PINS ZN=n_0_0_515 A=n_0_42 
Xi_0_0_642 INV_X1 $PINS ZN=n_0_0_514 A=n_0_41 
Xi_0_0_641 INV_X1 $PINS ZN=n_0_0_513 A=n_0_40 
Xi_0_0_640 INV_X1 $PINS ZN=n_0_0_512 A=n_0_39 
Xi_0_0_639 INV_X1 $PINS ZN=n_0_0_511 A=n_0_38 
Xi_0_0_638 INV_X1 $PINS ZN=n_0_0_510 A=n_0_37 
Xi_0_0_637 INV_X1 $PINS ZN=n_0_0_509 A=n_0_36 
Xi_0_0_636 INV_X1 $PINS ZN=n_0_0_508 A=n_0_35 
Xi_0_0_635 INV_X1 $PINS ZN=n_0_0_507 A=n_0_34 
Xi_0_0_634 INV_X1 $PINS ZN=n_0_0_506 A=n_0_33 
Xi_0_0_633 INV_X1 $PINS ZN=n_0_0_505 A=n_0_32 
Xi_0_0_632 INV_X1 $PINS ZN=n_0_0_504 A=n_0_31 
Xi_0_0_631 INV_X1 $PINS ZN=n_0_0_503 A=n_0_30 
Xi_0_0_630 INV_X1 $PINS ZN=n_0_0_502 A=n_0_29 
Xi_0_0_629 INV_X1 $PINS ZN=n_0_0_501 A=n_0_28 
Xi_0_0_628 INV_X1 $PINS ZN=n_0_0_500 A=n_0_27 
Xi_0_0_627 INV_X1 $PINS ZN=n_0_0_499 A=n_0_26 
Xi_0_0_626 OR2_X1 $PINS ZN=n_0_126 A1=B[30] A2=A[30] 
Xi_0_0_625 AOI22_X1 $PINS ZN=n_0_0_498 A1=B[30] A2=n_0_0_534 B1=B[29] 
+ B2=n_0_0_533 
Xi_0_0_624 OAI22_X1 $PINS ZN=n_0_0_497 A1=B[28] A2=n_0_0_532 B1=B[29] 
+ B2=n_0_0_533 
Xi_0_0_623 OAI211_X1 $PINS ZN=n_0_0_496 A=n_0_0_539 B=A[23] C1=n_0_0_540 
+ C2=A[24] 
Xi_0_0_622 OAI221_X1 $PINS ZN=n_0_0_495 A=n_0_0_496 B1=B[24] B2=n_0_0_528 
+ C1=B[25] C2=n_0_0_529 
Xi_0_0_621 OAI221_X1 $PINS ZN=n_0_0_494 A=n_0_0_495 B1=n_0_0_542 B2=A[26] 
+ C1=n_0_0_541 C2=A[25] 
Xi_0_0_620 NOR2_X1 $PINS ZN=n_0_0_493 A1=B[27] A2=n_0_0_531 
Xi_0_0_619 INV_X1 $PINS ZN=n_0_0_492 A=n_0_0_493 
Xi_0_0_618 AOI21_X1 $PINS ZN=n_0_0_491 A=n_0_0_493 B1=n_0_0_542 B2=A[26] 
Xi_0_0_617 AOI222_X1 $PINS ZN=n_0_0_490 A1=B[27] A2=n_0_0_531 B1=B[28] 
+ B2=n_0_0_532 C1=n_0_0_494 C2=n_0_0_491 
Xi_0_0_616 OAI21_X1 $PINS ZN=n_0_0_489 A=n_0_0_498 B1=n_0_0_497 B2=n_0_0_490 
Xi_0_0_615 OAI21_X4 $PINS ZN=n_0_0_488 A=n_0_0_489 B1=B[30] B2=n_0_0_534 
Xi_0_0_614 INV_X1 $PINS ZN=n_0_0_487 A=n_0_0_488 
Xi_0_0_613 OAI22_X1 $PINS ZN=n_0_125 A1=n_0_0_533 A2=CLOCK_sps__n1 B1=n_0_0_545 
+ B2=n_0_0_488 
Xi_0_0_612 INV_X1 $PINS ZN=n_0_0_18 A=n_0_125 
Xi_0_0_611 OAI22_X1 $PINS ZN=n_0_124 A1=n_0_0_532 A2=CLOCK_sps__n1 B1=n_0_0_544 
+ B2=n_0_0_488 
Xi_0_0_610 INV_X1 $PINS ZN=n_0_0_486 A=n_0_124 
Xi_0_0_609 OAI22_X1 $PINS ZN=n_0_123 A1=n_0_0_531 A2=CLOCK_sps__n1 B1=n_0_0_543 
+ B2=n_0_0_488 
Xi_0_0_608 OAI22_X1 $PINS ZN=n_0_122 A1=n_0_0_530 A2=CLOCK_sps__n1 B1=n_0_0_542 
+ B2=n_0_0_488 
Xi_0_0_607 OAI22_X1 $PINS ZN=n_0_121 A1=n_0_0_529 A2=CLOCK_sps__n1 B1=n_0_0_541 
+ B2=n_0_0_488 
Xi_0_0_606 OAI22_X1 $PINS ZN=n_0_120 A1=n_0_0_528 A2=CLOCK_sps__n1 B1=n_0_0_540 
+ B2=n_0_0_488 
Xi_0_0_605 OAI22_X1 $PINS ZN=n_0_119 A1=n_0_0_527 A2=CLOCK_sps__n1 B1=n_0_0_539 
+ B2=n_0_0_488 
Xi_0_0_604 INV_X1 $PINS ZN=n_0_0_485 A=n_0_119 
Xi_0_0_603 NOR3_X4 $PINS ZN=n_0_0_484 A1=E_difference[7] A2=E_difference[6] 
+ A3=E_difference[5] 
Xi_0_0_602 NOR2_X1 $PINS ZN=n_0_0_483 A1=E_difference[4] A2=E_difference[3] 
Xi_0_0_601 INV_X1 $PINS ZN=n_0_0_482 A=n_0_0_483 
Xi_0_0_600 NOR2_X1 $PINS ZN=n_0_0_481 A1=E_difference[2] A2=n_0_0_482 
Xi_0_0_599 INV_X1 $PINS ZN=n_0_0_480 A=n_0_0_481 
Xi_0_0_598 AND2_X1 $PINS ZN=n_0_0_479 A1=n_0_0_484 A2=n_0_0_481 
Xi_0_0_597 NAND2_X1 $PINS ZN=n_0_0_478 A1=n_0_0_521 A2=n_0_0_479 
Xi_0_0_596 NOR2_X1 $PINS ZN=M_shitfed[23] A1=E_difference[0] A2=n_0_0_478 
Xi_0_0_595 AOI22_X1 $PINS ZN=n_0_0_477 A1=B[22] A2=n_0_0_488 B1=A[22] 
+ B2=n_0_0_487 
Xi_0_0_594 AOI21_X1 $PINS ZN=M_shitfed[22] A=n_0_0_478 B1=n_0_0_520 
+ B2=n_0_0_477 
Xi_0_0_593 OAI22_X1 $PINS ZN=n_0_0_476 A1=n_0_0_538 A2=CLOCK_sps__n1 
+ B1=n_0_0_526 B2=n_0_0_488 
Xi_0_0_592 INV_X1 $PINS ZN=n_0_0_475 A=n_0_0_476 
Xi_0_0_591 NOR2_X1 $PINS ZN=n_0_0_474 A1=E_difference[1] A2=n_0_0_476 
Xi_0_0_590 NOR2_X1 $PINS ZN=n_0_0_473 A1=E_difference[1] A2=n_0_0_477 
Xi_0_0_589 OAI21_X1 $PINS ZN=n_0_0_472 A=n_0_0_479 B1=n_0_0_520 B2=n_0_0_473 
Xi_0_0_588 AOI21_X1 $PINS ZN=M_shitfed[21] A=n_0_0_472 B1=n_0_0_520 
+ B2=n_0_0_474 
Xi_0_0_587 AOI22_X1 $PINS ZN=n_0_0_471 A1=B[20] A2=n_0_0_488 B1=A[20] 
+ B2=n_0_0_487 
Xi_0_0_586 AOI221_X1 $PINS ZN=n_0_0_470 A=n_0_0_480 B1=n_0_0_521 B2=n_0_0_471 
+ C1=E_difference[1] C2=n_0_0_477 
Xi_0_0_585 OAI21_X1 $PINS ZN=n_0_0_469 A=E_difference[0] B1=n_0_0_480 
+ B2=n_0_0_474 
Xi_0_0_584 OAI211_X1 $PINS ZN=n_0_0_468 A=n_0_0_484 B=n_0_0_469 
+ C1=E_difference[0] C2=n_0_0_470 
Xi_0_0_583 INV_X1 $PINS ZN=M_shitfed[20] A=n_0_0_468 
Xi_0_0_582 AOI22_X1 $PINS ZN=n_0_0_467 A1=B[19] A2=CLOCK_spc__n3 B1=A[19] 
+ B2=n_0_0_487 
Xi_0_0_581 NOR2_X1 $PINS ZN=n_0_0_466 A1=n_0_0_482 A2=n_0_0_467 
Xi_0_0_580 NOR2_X1 $PINS ZN=n_0_0_465 A1=n_0_0_522 A2=n_0_0_482 
Xi_0_0_579 INV_X1 $PINS ZN=n_0_0_464 A=n_0_0_465 
Xi_0_0_578 NOR2_X1 $PINS ZN=n_0_0_463 A1=n_0_0_466 A2=n_0_0_465 
Xi_0_0_577 NAND2_X1 $PINS ZN=n_0_0_462 A1=E_difference[1] A2=n_0_0_481 
Xi_0_0_576 OAI22_X1 $PINS ZN=n_0_0_461 A1=E_difference[1] A2=n_0_0_463 
+ B1=n_0_0_475 B2=n_0_0_462 
Xi_0_0_575 OAI221_X1 $PINS ZN=n_0_0_460 A=n_0_0_484 B1=n_0_0_520 B2=n_0_0_470 
+ C1=E_difference[0] C2=n_0_0_461 
Xi_0_0_574 INV_X1 $PINS ZN=M_shitfed[19] A=n_0_0_460 
Xi_0_0_573 AOI22_X1 $PINS ZN=n_0_0_459 A1=B[18] A2=n_0_0_488 B1=A[18] 
+ B2=n_0_0_487 
Xi_0_0_572 OAI22_X1 $PINS ZN=n_0_0_458 A1=n_0_0_477 A2=n_0_0_464 B1=n_0_0_480 
+ B2=n_0_0_459 
Xi_0_0_571 INV_X1 $PINS ZN=n_0_0_457 A=n_0_0_458 
Xi_0_0_570 OAI22_X1 $PINS ZN=n_0_0_456 A1=E_difference[1] A2=n_0_0_457 
+ B1=n_0_0_471 B2=n_0_0_462 
Xi_0_0_569 OAI221_X1 $PINS ZN=n_0_0_455 A=n_0_0_484 B1=E_difference[0] 
+ B2=n_0_0_456 C1=n_0_0_520 C2=n_0_0_461 
Xi_0_0_568 INV_X1 $PINS ZN=M_shitfed[18] A=n_0_0_455 
Xi_0_0_567 AOI22_X1 $PINS ZN=n_0_0_454 A1=B[17] A2=n_0_0_488 B1=A[17] 
+ B2=n_0_0_487 
Xi_0_0_566 OAI22_X1 $PINS ZN=n_0_0_453 A1=n_0_0_475 A2=n_0_0_464 B1=n_0_0_480 
+ B2=n_0_0_454 
Xi_0_0_565 INV_X1 $PINS ZN=n_0_0_452 A=n_0_0_453 
Xi_0_0_564 OAI22_X1 $PINS ZN=n_0_0_451 A1=n_0_0_521 A2=n_0_0_463 
+ B1=E_difference[1] B2=n_0_0_452 
Xi_0_0_563 OAI221_X1 $PINS ZN=n_0_0_450 A=n_0_0_484 B1=n_0_0_520 B2=n_0_0_456 
+ C1=E_difference[0] C2=n_0_0_451 
Xi_0_0_562 INV_X1 $PINS ZN=M_shitfed[17] A=n_0_0_450 
Xi_0_0_561 AOI22_X1 $PINS ZN=n_0_0_449 A1=B[16] A2=n_0_0_488 B1=A[16] 
+ B2=n_0_0_487 
Xi_0_0_560 OAI22_X1 $PINS ZN=n_0_0_448 A1=n_0_0_480 A2=n_0_0_449 B1=n_0_0_471 
+ B2=n_0_0_464 
Xi_0_0_559 INV_X1 $PINS ZN=n_0_0_447 A=n_0_0_448 
Xi_0_0_558 OAI22_X1 $PINS ZN=n_0_0_446 A1=n_0_0_521 A2=n_0_0_457 
+ B1=E_difference[1] B2=n_0_0_447 
Xi_0_0_557 OAI221_X1 $PINS ZN=n_0_0_445 A=n_0_0_484 B1=n_0_0_520 B2=n_0_0_451 
+ C1=E_difference[0] C2=n_0_0_446 
Xi_0_0_556 INV_X1 $PINS ZN=M_shitfed[16] A=n_0_0_445 
Xi_0_0_555 NOR2_X1 $PINS ZN=n_0_0_444 A1=E_difference[4] A2=n_0_0_523 
Xi_0_0_554 INV_X1 $PINS ZN=n_0_0_443 A=n_0_0_444 
Xi_0_0_553 AOI221_X1 $PINS ZN=n_0_0_442 A=E_difference[4] B1=n_0_0_537 
+ B2=n_0_0_488 C1=n_0_0_525 C2=n_0_0_487 
Xi_0_0_552 OR2_X1 $PINS ZN=n_0_0_441 A1=n_0_0_444 A2=n_0_0_442 
Xi_0_0_551 AOI22_X1 $PINS ZN=n_0_0_440 A1=n_0_0_522 A2=n_0_0_441 
+ B1=E_difference[2] B2=n_0_0_466 
Xi_0_0_550 OAI22_X1 $PINS ZN=n_0_0_439 A1=n_0_0_521 A2=n_0_0_452 
+ B1=E_difference[1] B2=n_0_0_440 
Xi_0_0_549 OAI221_X1 $PINS ZN=n_0_0_438 A=n_0_0_484 B1=n_0_0_520 B2=n_0_0_446 
+ C1=E_difference[0] C2=n_0_0_439 
Xi_0_0_548 INV_X1 $PINS ZN=M_shitfed[15] A=n_0_0_438 
Xi_0_0_547 AOI22_X1 $PINS ZN=n_0_0_437 A1=B[14] A2=n_0_0_488 B1=A[14] 
+ B2=n_0_0_487 
Xi_0_0_546 OAI22_X1 $PINS ZN=n_0_0_436 A1=n_0_0_477 A2=n_0_0_443 B1=n_0_0_482 
+ B2=n_0_0_437 
Xi_0_0_545 NOR2_X1 $PINS ZN=n_0_0_435 A1=n_0_0_464 A2=n_0_0_459 
Xi_0_0_544 AOI21_X1 $PINS ZN=n_0_0_434 A=n_0_0_435 B1=n_0_0_522 B2=n_0_0_436 
Xi_0_0_543 OAI22_X1 $PINS ZN=n_0_0_433 A1=E_difference[1] A2=n_0_0_434 
+ B1=n_0_0_521 B2=n_0_0_447 
Xi_0_0_542 OAI221_X1 $PINS ZN=n_0_0_432 A=n_0_0_484 B1=E_difference[0] 
+ B2=n_0_0_433 C1=n_0_0_520 C2=n_0_0_439 
Xi_0_0_541 INV_X1 $PINS ZN=M_shitfed[14] A=n_0_0_432 
Xi_0_0_540 AOI22_X1 $PINS ZN=n_0_0_431 A1=B[13] A2=n_0_0_488 B1=A[13] 
+ B2=n_0_0_487 
Xi_0_0_539 OAI22_X1 $PINS ZN=n_0_0_430 A1=n_0_0_475 A2=n_0_0_443 B1=n_0_0_482 
+ B2=n_0_0_431 
Xi_0_0_538 NOR2_X1 $PINS ZN=n_0_0_429 A1=n_0_0_464 A2=n_0_0_454 
Xi_0_0_537 AOI21_X1 $PINS ZN=n_0_0_428 A=n_0_0_429 B1=n_0_0_522 B2=n_0_0_430 
Xi_0_0_536 OAI22_X1 $PINS ZN=n_0_0_427 A1=E_difference[1] A2=n_0_0_428 
+ B1=n_0_0_521 B2=n_0_0_440 
Xi_0_0_535 OAI221_X1 $PINS ZN=n_0_0_426 A=n_0_0_484 B1=n_0_0_520 B2=n_0_0_433 
+ C1=E_difference[0] C2=n_0_0_427 
Xi_0_0_534 INV_X1 $PINS ZN=M_shitfed[13] A=n_0_0_426 
Xi_0_0_533 AOI22_X1 $PINS ZN=n_0_0_425 A1=B[12] A2=n_0_0_488 B1=A[12] 
+ B2=n_0_0_487 
Xi_0_0_532 OAI22_X1 $PINS ZN=n_0_0_424 A1=n_0_0_482 A2=n_0_0_425 B1=n_0_0_471 
+ B2=n_0_0_443 
Xi_0_0_531 NOR2_X1 $PINS ZN=n_0_0_423 A1=n_0_0_464 A2=n_0_0_449 
Xi_0_0_530 AOI21_X1 $PINS ZN=n_0_0_422 A=n_0_0_423 B1=n_0_0_522 B2=n_0_0_424 
Xi_0_0_529 OAI22_X1 $PINS ZN=n_0_0_421 A1=n_0_0_521 A2=n_0_0_434 
+ B1=E_difference[1] B2=n_0_0_422 
Xi_0_0_528 OAI221_X1 $PINS ZN=n_0_0_420 A=n_0_0_484 B1=E_difference[0] 
+ B2=n_0_0_421 C1=n_0_0_520 C2=n_0_0_427 
Xi_0_0_527 INV_X1 $PINS ZN=M_shitfed[12] A=n_0_0_420 
Xi_0_0_526 AOI22_X1 $PINS ZN=n_0_0_419 A1=B[11] A2=CLOCK_spc__n3 B1=A[11] 
+ B2=n_0_0_487 
Xi_0_0_525 OAI22_X1 $PINS ZN=n_0_0_418 A1=n_0_0_467 A2=n_0_0_443 B1=n_0_0_482 
+ B2=n_0_0_419 
Xi_0_0_524 AOI22_X1 $PINS ZN=n_0_0_417 A1=n_0_0_522 A2=n_0_0_418 
+ B1=E_difference[2] B2=n_0_0_441 
Xi_0_0_523 OAI22_X1 $PINS ZN=n_0_0_416 A1=E_difference[1] A2=n_0_0_417 
+ B1=n_0_0_521 B2=n_0_0_428 
Xi_0_0_522 OAI221_X1 $PINS ZN=n_0_0_415 A=n_0_0_484 B1=n_0_0_520 B2=n_0_0_421 
+ C1=E_difference[0] C2=n_0_0_416 
Xi_0_0_521 INV_X1 $PINS ZN=M_shitfed[11] A=n_0_0_415 
Xi_0_0_520 AOI22_X1 $PINS ZN=n_0_0_414 A1=B[10] A2=n_0_0_488 B1=A[10] 
+ B2=n_0_0_487 
Xi_0_0_519 OAI22_X1 $PINS ZN=n_0_0_413 A1=n_0_0_459 A2=n_0_0_443 B1=n_0_0_482 
+ B2=n_0_0_414 
Xi_0_0_518 AOI22_X1 $PINS ZN=n_0_0_412 A1=n_0_0_522 A2=n_0_0_413 
+ B1=E_difference[2] B2=n_0_0_436 
Xi_0_0_517 OAI22_X1 $PINS ZN=n_0_0_411 A1=n_0_0_521 A2=n_0_0_422 
+ B1=E_difference[1] B2=n_0_0_412 
Xi_0_0_516 OAI221_X1 $PINS ZN=n_0_0_410 A=n_0_0_484 B1=E_difference[0] 
+ B2=n_0_0_411 C1=n_0_0_520 C2=n_0_0_416 
Xi_0_0_515 INV_X1 $PINS ZN=M_shitfed[10] A=n_0_0_410 
Xi_0_0_514 AOI22_X1 $PINS ZN=n_0_0_409 A1=B[9] A2=CLOCK_spc__n3 B1=A[9] 
+ B2=n_0_0_487 
Xi_0_0_513 OAI22_X1 $PINS ZN=n_0_0_408 A1=n_0_0_454 A2=n_0_0_443 B1=n_0_0_482 
+ B2=n_0_0_409 
Xi_0_0_512 AOI22_X1 $PINS ZN=n_0_0_407 A1=E_difference[2] A2=n_0_0_430 
+ B1=n_0_0_522 B2=n_0_0_408 
Xi_0_0_511 OAI22_X1 $PINS ZN=n_0_0_406 A1=n_0_0_521 A2=n_0_0_417 
+ B1=E_difference[1] B2=n_0_0_407 
Xi_0_0_510 OAI221_X1 $PINS ZN=n_0_0_405 A=n_0_0_484 B1=n_0_0_520 B2=n_0_0_411 
+ C1=E_difference[0] C2=n_0_0_406 
Xi_0_0_509 INV_X1 $PINS ZN=M_shitfed[9] A=n_0_0_405 
Xi_0_0_508 AOI22_X1 $PINS ZN=n_0_0_404 A1=B[8] A2=CLOCK_spc__n3 B1=A[8] 
+ B2=n_0_0_487 
Xi_0_0_507 OAI22_X1 $PINS ZN=n_0_0_403 A1=n_0_0_449 A2=n_0_0_443 B1=n_0_0_482 
+ B2=n_0_0_404 
Xi_0_0_506 AOI22_X1 $PINS ZN=n_0_0_402 A1=E_difference[2] A2=n_0_0_424 
+ B1=n_0_0_522 B2=n_0_0_403 
Xi_0_0_505 OAI22_X1 $PINS ZN=n_0_0_401 A1=E_difference[1] A2=n_0_0_402 
+ B1=n_0_0_521 B2=n_0_0_412 
Xi_0_0_504 OAI221_X1 $PINS ZN=n_0_0_400 A=n_0_0_484 B1=E_difference[0] 
+ B2=n_0_0_401 C1=n_0_0_520 C2=n_0_0_406 
Xi_0_0_503 INV_X1 $PINS ZN=M_shitfed[8] A=n_0_0_400 
Xi_0_0_502 OAI221_X1 $PINS ZN=n_0_0_399 A=n_0_0_483 B1=n_0_0_524 B2=n_0_0_488 
+ C1=n_0_0_536 C2=n_0_0_487 
Xi_0_0_501 OAI21_X1 $PINS ZN=n_0_0_398 A=n_0_0_399 B1=n_0_0_523 B2=n_0_0_442 
Xi_0_0_500 INV_X1 $PINS ZN=n_0_0_397 A=n_0_0_398 
Xi_0_0_499 OAI22_X1 $PINS ZN=n_0_0_396 A1=E_difference[2] A2=n_0_0_397 
+ B1=n_0_0_522 B2=n_0_0_418 
Xi_0_0_498 AOI22_X1 $PINS ZN=n_0_0_395 A1=n_0_0_521 A2=n_0_0_396 
+ B1=E_difference[1] B2=n_0_0_407 
Xi_0_0_497 OAI221_X1 $PINS ZN=n_0_0_394 A=n_0_0_484 B1=n_0_0_520 B2=n_0_0_401 
+ C1=E_difference[0] C2=n_0_0_395 
Xi_0_0_496 INV_X1 $PINS ZN=M_shitfed[7] A=n_0_0_394 
Xi_0_0_495 OAI221_X1 $PINS ZN=n_0_0_393 A=n_0_0_483 B1=B[6] B2=n_0_0_487 
+ C1=A[6] C2=n_0_0_488 
Xi_0_0_494 NAND2_X1 $PINS ZN=n_0_0_392 A1=E_difference[4] A2=n_0_0_523 
Xi_0_0_493 OAI221_X1 $PINS ZN=n_0_0_391 A=n_0_0_393 B1=n_0_0_443 B2=n_0_0_437 
+ C1=n_0_0_477 C2=n_0_0_392 
Xi_0_0_492 AOI22_X1 $PINS ZN=n_0_0_390 A1=n_0_0_522 A2=n_0_0_391 
+ B1=E_difference[2] B2=n_0_0_413 
Xi_0_0_491 OAI22_X1 $PINS ZN=n_0_0_389 A1=E_difference[1] A2=n_0_0_390 
+ B1=n_0_0_521 B2=n_0_0_402 