* SPICE NETLIST
***************************************

.SUBCKT MGC_via1_1x2_VV_1
** N=1 EP=0 IP=0 FDC=0
.ENDS
***************************************
.SUBCKT MGC_via1_1x2_VV
** N=1 EP=0 IP=0 FDC=0
.ENDS
***************************************
.SUBCKT via2_5
** N=1 EP=0 IP=0 FDC=0
.ENDS
***************************************
.SUBCKT MGC_via2_2x1_HH_0
** N=1 EP=0 IP=0 FDC=0
.ENDS
***************************************
.SUBCKT MGC_via2_2x1_HH
** N=1 EP=0 IP=0 FDC=0
.ENDS
***************************************
.SUBCKT MGC_via1_1x2_VV_0
** N=1 EP=0 IP=0 FDC=0
.ENDS
***************************************
.SUBCKT MGC_via2_2x1_HH_1
** N=1 EP=0 IP=0 FDC=0
.ENDS
***************************************
.SUBCKT MGC_via2_1x2_VH_0
** N=1 EP=0 IP=0 FDC=0
.ENDS
***************************************
.SUBCKT MGC_via2_1x2_VH_1
** N=1 EP=0 IP=0 FDC=0
.ENDS
***************************************
.SUBCKT MGC_via2_1x2_VV_0
** N=1 EP=0 IP=0 FDC=0
.ENDS
***************************************
.SUBCKT MGC_via1_1x2_HV
** N=1 EP=0 IP=0 FDC=0
.ENDS
***************************************
.SUBCKT MGC_via1_1x2_HV_1
** N=1 EP=0 IP=0 FDC=0
.ENDS
***************************************
.SUBCKT via1_5
** N=1 EP=0 IP=0 FDC=0
.ENDS
***************************************
.SUBCKT via2_7
** N=1 EP=0 IP=0 FDC=0
.ENDS
***************************************
.SUBCKT ICV_1
** N=1 EP=0 IP=2 FDC=0
.ENDS
***************************************
.SUBCKT FILLCELL_X2
** N=3 EP=0 IP=0 FDC=0
*.CALIBRE ISOLATED NETS: VSS VDD
.ENDS
***************************************
.SUBCKT MGC_via2_1x2_VV
** N=1 EP=0 IP=0 FDC=0
.ENDS
***************************************
.SUBCKT ICV_2
** N=2 EP=0 IP=2 FDC=0
.ENDS
***************************************
.SUBCKT WELLTAP
** N=2 EP=0 IP=0 FDC=0
*.CALIBRE ISOLATED NETS: VSS VDD
.ENDS
***************************************
.SUBCKT ICV_3
** N=3 EP=0 IP=6 FDC=0
.ENDS
***************************************
.SUBCKT ICV_4
** N=1 EP=0 IP=2 FDC=0
.ENDS
***************************************
.SUBCKT MGC_via1_2x1_VH_0
** N=1 EP=0 IP=0 FDC=0
.ENDS
***************************************
.SUBCKT MGC_via1_1x2_HV_0
** N=1 EP=0 IP=0 FDC=0
.ENDS
***************************************
.SUBCKT CLKBUF_X1 A VSS VDD Z
** N=5 EP=4 IP=0 FDC=4
M0 VSS A 5 VSS NMOS_VTL L=5e-08 W=9.5e-08 AD=2.03e-14 AS=9.975e-15 PD=6.7e-07 PS=4e-07 $X=165 $Y=160 $D=1
M1 Z 5 VSS VSS NMOS_VTL L=5e-08 W=1.95e-07 AD=2.0475e-14 AS=2.03e-14 PD=6e-07 PS=6.7e-07 $X=355 $Y=160 $D=1
M2 VDD A 5 VDD PMOS_VTL L=5e-08 W=3.15e-07 AD=6.615e-14 AS=3.3075e-14 PD=1.54e-06 PS=8.4e-07 $X=165 $Y=995 $D=0
M3 Z 5 VDD VDD PMOS_VTL L=5e-08 W=6.3e-07 AD=6.615e-14 AS=6.615e-14 PD=1.47e-06 PS=1.54e-06 $X=355 $Y=680 $D=0
.ENDS
***************************************
.SUBCKT ICV_5
** N=2 EP=0 IP=6 FDC=0
.ENDS
***************************************
.SUBCKT ICV_6
** N=2 EP=0 IP=5 FDC=0
.ENDS
***************************************
.SUBCKT AND2_X1 A1 A2 VSS VDD ZN
** N=7 EP=5 IP=0 FDC=6
M0 7 A1 6 VSS NMOS_VTL L=5e-08 W=2.1e-07 AD=2.94e-14 AS=2.205e-14 PD=7e-07 PS=6.3e-07 $X=145 $Y=90 $D=1
M1 VSS A2 7 VSS NMOS_VTL L=5e-08 W=2.1e-07 AD=4.375e-14 AS=2.94e-14 PD=1.11e-06 PS=7e-07 $X=335 $Y=90 $D=1
M2 ZN 6 VSS VSS NMOS_VTL L=5e-08 W=4.15e-07 AD=4.3575e-14 AS=4.375e-14 PD=1.04e-06 PS=1.11e-06 $X=525 $Y=90 $D=1
M3 6 A1 VDD VDD PMOS_VTL L=5e-08 W=3.15e-07 AD=4.41e-14 AS=3.3075e-14 PD=9.1e-07 PS=8.4e-07 $X=145 $Y=995 $D=0
M4 VDD A2 6 VDD PMOS_VTL L=5e-08 W=3.15e-07 AD=6.615e-14 AS=4.41e-14 PD=1.54e-06 PS=9.1e-07 $X=335 $Y=995 $D=0
M5 ZN 6 VDD VDD PMOS_VTL L=5e-08 W=6.3e-07 AD=6.615e-14 AS=6.615e-14 PD=1.47e-06 PS=1.54e-06 $X=525 $Y=680 $D=0
.ENDS
***************************************
.SUBCKT MGC_via2_2x1_VH_0
** N=1 EP=0 IP=0 FDC=0
.ENDS
***************************************
.SUBCKT INV_X2 A ZN VSS VDD
** N=4 EP=4 IP=0 FDC=4
M0 ZN A VSS VSS NMOS_VTL L=5e-08 W=4.15e-07 AD=5.81e-14 AS=4.3575e-14 PD=1.11e-06 PS=1.04e-06 $X=160 $Y=90 $D=1
M1 VSS A ZN VSS NMOS_VTL L=5e-08 W=4.15e-07 AD=4.3575e-14 AS=5.81e-14 PD=1.04e-06 PS=1.11e-06 $X=350 $Y=90 $D=1
M2 ZN A VDD VDD PMOS_VTL L=5e-08 W=6.3e-07 AD=8.82e-14 AS=6.615e-14 PD=1.54e-06 PS=1.47e-06 $X=160 $Y=680 $D=0
M3 VDD A ZN VDD PMOS_VTL L=5e-08 W=6.3e-07 AD=6.615e-14 AS=8.82e-14 PD=1.47e-06 PS=1.54e-06 $X=350 $Y=680 $D=0
.ENDS
***************************************
.SUBCKT ICV_7
** N=2 EP=0 IP=2 FDC=0
.ENDS
***************************************
.SUBCKT MGC_via2_1x2_VV_1
** N=1 EP=0 IP=0 FDC=0
.ENDS
***************************************
.SUBCKT ICV_8
** N=1 EP=0 IP=2 FDC=0
.ENDS
***************************************
.SUBCKT ICV_9
** N=2 EP=0 IP=2 FDC=0
.ENDS
***************************************
.SUBCKT ICV_10
** N=2 EP=0 IP=2 FDC=0
.ENDS
***************************************
.SUBCKT ICV_11
** N=2 EP=0 IP=2 FDC=0
.ENDS
***************************************
.SUBCKT FILLCELL_X4
** N=3 EP=0 IP=0 FDC=0
*.CALIBRE ISOLATED NETS: VSS VDD
.ENDS
***************************************
.SUBCKT ICV_12
** N=2 EP=0 IP=2 FDC=0
.ENDS
***************************************
.SUBCKT ICV_13
** N=1 EP=0 IP=2 FDC=0
.ENDS
***************************************
.SUBCKT MGC_via1_2x1_HH_0
** N=1 EP=0 IP=0 FDC=0
.ENDS
***************************************
.SUBCKT ICV_14
** N=3 EP=0 IP=6 FDC=0
.ENDS
***************************************
.SUBCKT ICV_15
** N=2 EP=0 IP=6 FDC=0
.ENDS
***************************************
.SUBCKT MGC_via2_1x2_HV
** N=1 EP=0 IP=0 FDC=0
.ENDS
***************************************
.SUBCKT ICV_16 1 2 3 4 5 6 7
** N=7 EP=7 IP=9 FDC=10
X0 1 2 3 4 CLKBUF_X1 $T=0 0 0 0 $X=-115 $Y=-115
X1 5 6 2 3 7 AND2_X1 $T=-760 0 0 0 $X=-875 $Y=-115
.ENDS
***************************************
.SUBCKT MGC_via1_2x1_HH_1
** N=1 EP=0 IP=0 FDC=0
.ENDS
***************************************
.SUBCKT ICV_17
** N=2 EP=0 IP=2 FDC=0
.ENDS
***************************************
.SUBCKT ICV_18
** N=2 EP=0 IP=2 FDC=0
.ENDS
***************************************
.SUBCKT ICV_19
** N=1 EP=0 IP=2 FDC=0
.ENDS
***************************************
.SUBCKT via1_7
** N=1 EP=0 IP=0 FDC=0
.ENDS
***************************************
.SUBCKT DLH_X1 G Q D VSS VDD
** N=13 EP=5 IP=0 FDC=16
M0 VSS G 6 VSS NMOS_VTL L=5e-08 W=2.1e-07 AD=4.375e-14 AS=2.205e-14 PD=1.11e-06 PS=6.3e-07 $X=170 $Y=90 $D=1
M1 Q 8 VSS VSS NMOS_VTL L=5e-08 W=4.15e-07 AD=4.3575e-14 AS=4.375e-14 PD=1.04e-06 PS=1.11e-06 $X=360 $Y=90 $D=1
M2 VSS 6 7 VSS NMOS_VTL L=5e-08 W=2.1e-07 AD=2.94e-14 AS=2.205e-14 PD=7e-07 PS=6.3e-07 $X=755 $Y=215 $D=1
M3 12 D VSS VSS NMOS_VTL L=5e-08 W=2.1e-07 AD=2.94e-14 AS=2.94e-14 PD=7e-07 PS=7e-07 $X=945 $Y=215 $D=1
M4 8 7 12 VSS NMOS_VTL L=5e-08 W=2.1e-07 AD=2.1e-14 AS=2.94e-14 PD=7e-07 PS=7e-07 $X=1135 $Y=215 $D=1
M5 13 6 8 VSS NMOS_VTL L=5e-08 W=9e-08 AD=1.26e-14 AS=2.1e-14 PD=4.6e-07 PS=7e-07 $X=1325 $Y=335 $D=1
M6 VSS 9 13 VSS NMOS_VTL L=5e-08 W=9e-08 AD=1.26e-14 AS=1.26e-14 PD=4.6e-07 PS=4.6e-07 $X=1515 $Y=335 $D=1
M7 9 8 VSS VSS NMOS_VTL L=5e-08 W=9e-08 AD=9.45e-15 AS=1.26e-14 PD=3.9e-07 PS=4.6e-07 $X=1705 $Y=335 $D=1
M8 VDD G 6 VDD PMOS_VTL L=5e-08 W=3.15e-07 AD=6.615e-14 AS=3.3075e-14 PD=1.54e-06 PS=8.4e-07 $X=170 $Y=995 $D=0
M9 Q 8 VDD VDD PMOS_VTL L=5e-08 W=6.3e-07 AD=6.615e-14 AS=6.615e-14 PD=1.47e-06 PS=1.54e-06 $X=360 $Y=680 $D=0
M10 VDD 6 7 VDD PMOS_VTL L=5e-08 W=3.15e-07 AD=4.41e-14 AS=3.3075e-14 PD=9.1e-07 PS=8.4e-07 $X=755 $Y=815 $D=0
M11 10 D VDD VDD PMOS_VTL L=5e-08 W=3.15e-07 AD=4.41e-14 AS=4.41e-14 PD=9.1e-07 PS=9.1e-07 $X=945 $Y=815 $D=0
M12 8 6 10 VDD PMOS_VTL L=5e-08 W=3.15e-07 AD=2.835e-14 AS=4.41e-14 PD=9.1e-07 PS=9.1e-07 $X=1135 $Y=815 $D=0
M13 11 7 8 VDD PMOS_VTL L=5e-08 W=9e-08 AD=1.26e-14 AS=2.835e-14 PD=4.6e-07 PS=9.1e-07 $X=1325 $Y=1040 $D=0
M14 VDD 9 11 VDD PMOS_VTL L=5e-08 W=9e-08 AD=1.26e-14 AS=1.26e-14 PD=4.6e-07 PS=4.6e-07 $X=1515 $Y=1040 $D=0
M15 9 8 VDD VDD PMOS_VTL L=5e-08 W=9e-08 AD=9.45e-15 AS=1.26e-14 PD=3.9e-07 PS=4.6e-07 $X=1705 $Y=1040 $D=0
.ENDS
***************************************
.SUBCKT FILLCELL_X8
** N=3 EP=0 IP=0 FDC=0
*.CALIBRE ISOLATED NETS: VSS VDD
.ENDS
***************************************
.SUBCKT ICV_20
** N=2 EP=0 IP=6 FDC=0
.ENDS
***************************************
.SUBCKT ICV_21
** N=2 EP=0 IP=4 FDC=0
.ENDS
***************************************
.SUBCKT INV_X4 A ZN VSS VDD
** N=4 EP=4 IP=0 FDC=8
M0 ZN A VSS VSS NMOS_VTL L=5e-08 W=4.15e-07 AD=5.81e-14 AS=4.3575e-14 PD=1.11e-06 PS=1.04e-06 $X=145 $Y=90 $D=1
M1 VSS A ZN VSS NMOS_VTL L=5e-08 W=4.15e-07 AD=5.81e-14 AS=5.81e-14 PD=1.11e-06 PS=1.11e-06 $X=335 $Y=90 $D=1
M2 ZN A VSS VSS NMOS_VTL L=5e-08 W=4.15e-07 AD=5.81e-14 AS=5.81e-14 PD=1.11e-06 PS=1.11e-06 $X=525 $Y=90 $D=1
M3 VSS A ZN VSS NMOS_VTL L=5e-08 W=4.15e-07 AD=4.3575e-14 AS=5.81e-14 PD=1.04e-06 PS=1.11e-06 $X=715 $Y=90 $D=1
M4 ZN A VDD VDD PMOS_VTL L=5e-08 W=6.3e-07 AD=8.82e-14 AS=6.615e-14 PD=1.54e-06 PS=1.47e-06 $X=145 $Y=680 $D=0
M5 VDD A ZN VDD PMOS_VTL L=5e-08 W=6.3e-07 AD=8.82e-14 AS=8.82e-14 PD=1.54e-06 PS=1.54e-06 $X=335 $Y=680 $D=0
M6 ZN A VDD VDD PMOS_VTL L=5e-08 W=6.3e-07 AD=8.82e-14 AS=8.82e-14 PD=1.54e-06 PS=1.54e-06 $X=525 $Y=680 $D=0
M7 VDD A ZN VDD PMOS_VTL L=5e-08 W=6.3e-07 AD=6.615e-14 AS=8.82e-14 PD=1.47e-06 PS=1.54e-06 $X=715 $Y=680 $D=0
.ENDS
***************************************
.SUBCKT ICV_22
** N=2 EP=0 IP=5 FDC=0
.ENDS
***************************************
.SUBCKT NOR2_X1 A2 VDD A1 ZN VSS 6
** N=7 EP=6 IP=0 FDC=4
M0 ZN A2 VSS 6 NMOS_VTL L=5e-08 W=4.15e-07 AD=5.81e-14 AS=4.3575e-14 PD=1.11e-06 PS=1.04e-06 $X=160 $Y=90 $D=1
M1 VSS A1 ZN 6 NMOS_VTL L=5e-08 W=4.15e-07 AD=4.3575e-14 AS=5.81e-14 PD=1.04e-06 PS=1.11e-06 $X=350 $Y=90 $D=1
M2 7 A2 VDD VDD PMOS_VTL L=5e-08 W=6.3e-07 AD=8.82e-14 AS=6.615e-14 PD=1.54e-06 PS=1.47e-06 $X=160 $Y=680 $D=0
M3 ZN A1 7 VDD PMOS_VTL L=5e-08 W=6.3e-07 AD=6.615e-14 AS=8.82e-14 PD=1.47e-06 PS=1.54e-06 $X=350 $Y=680 $D=0
.ENDS
***************************************
.SUBCKT ICV_23 1 2 3 4 5
** N=5 EP=5 IP=9 FDC=4
X1 3 2 4 5 1 1 NOR2_X1 $T=190 0 0 0 $X=75 $Y=-115
.ENDS
***************************************
.SUBCKT ICV_24 1 2 3 4 5
** N=5 EP=5 IP=8 FDC=4
X1 1 2 3 4 5 ICV_23 $T=380 0 0 0 $X=265 $Y=-115
.ENDS
***************************************
.SUBCKT HA_X1 S B A VSS VDD CO
** N=12 EP=6 IP=0 FDC=16
M0 11 B VSS VSS NMOS_VTL L=5e-08 W=4.15e-07 AD=5.81e-14 AS=4.3575e-14 PD=1.11e-06 PS=1.04e-06 $X=185 $Y=90 $D=1
M1 S A 11 VSS NMOS_VTL L=5e-08 W=4.15e-07 AD=5.81e-14 AS=5.81e-14 PD=1.11e-06 PS=1.11e-06 $X=375 $Y=90 $D=1
M2 VSS 8 S VSS NMOS_VTL L=5e-08 W=4.15e-07 AD=4.48e-14 AS=5.81e-14 PD=1.12e-06 PS=1.11e-06 $X=565 $Y=90 $D=1
M3 8 B VSS VSS NMOS_VTL L=5e-08 W=2.1e-07 AD=2.94e-14 AS=4.48e-14 PD=7e-07 PS=1.12e-06 $X=760 $Y=90 $D=1
M4 VSS A 8 VSS NMOS_VTL L=5e-08 W=2.1e-07 AD=2.205e-14 AS=2.94e-14 PD=6.3e-07 PS=7e-07 $X=950 $Y=90 $D=1
M5 12 A 9 VSS NMOS_VTL L=5e-08 W=2.1e-07 AD=2.94e-14 AS=2.205e-14 PD=7e-07 PS=6.3e-07 $X=1320 $Y=90 $D=1
M6 VSS B 12 VSS NMOS_VTL L=5e-08 W=2.1e-07 AD=4.375e-14 AS=2.94e-14 PD=1.11e-06 PS=7e-07 $X=1510 $Y=90 $D=1
M7 CO 9 VSS VSS NMOS_VTL L=5e-08 W=4.15e-07 AD=4.3575e-14 AS=4.375e-14 PD=1.04e-06 PS=1.11e-06 $X=1700 $Y=90 $D=1
M8 S B 7 VDD PMOS_VTL L=5e-08 W=6.3e-07 AD=8.82e-14 AS=6.615e-14 PD=1.54e-06 PS=1.47e-06 $X=185 $Y=680 $D=0
M9 7 A S VDD PMOS_VTL L=5e-08 W=6.3e-07 AD=8.82e-14 AS=8.82e-14 PD=1.54e-06 PS=1.54e-06 $X=375 $Y=680 $D=0
M10 VDD 8 7 VDD PMOS_VTL L=5e-08 W=6.3e-07 AD=6.7725e-14 AS=8.82e-14 PD=1.55e-06 PS=1.54e-06 $X=565 $Y=680 $D=0
M11 10 B VDD VDD PMOS_VTL L=5e-08 W=3.15e-07 AD=4.41e-14 AS=6.7725e-14 PD=9.1e-07 PS=1.55e-06 $X=760 $Y=870 $D=0
M12 8 A 10 VDD PMOS_VTL L=5e-08 W=3.15e-07 AD=3.3075e-14 AS=4.41e-14 PD=8.4e-07 PS=9.1e-07 $X=950 $Y=870 $D=0
M13 9 A VDD VDD PMOS_VTL L=5e-08 W=3.15e-07 AD=4.41e-14 AS=3.3075e-14 PD=9.1e-07 PS=8.4e-07 $X=1320 $Y=870 $D=0
M14 VDD B 9 VDD PMOS_VTL L=5e-08 W=3.15e-07 AD=6.615e-14 AS=4.41e-14 PD=1.54e-06 PS=9.1e-07 $X=1510 $Y=870 $D=0
M15 CO 9 VDD VDD PMOS_VTL L=5e-08 W=6.3e-07 AD=6.615e-14 AS=6.615e-14 PD=1.47e-06 PS=1.54e-06 $X=1700 $Y=680 $D=0
.ENDS
***************************************
.SUBCKT ICV_25
** N=2 EP=0 IP=2 FDC=0
.ENDS
***************************************
.SUBCKT ICV_26 1 2 3 4 5
** N=5 EP=5 IP=7 FDC=16
X1 3 4 5 1 2 DLH_X1 $T=0 0 0 0 $X=-115 $Y=-115
.ENDS
***************************************
.SUBCKT ICV_27 1 2 3 4 5
** N=5 EP=5 IP=7 FDC=16
X1 3 4 5 1 2 DLH_X1 $T=380 0 0 0 $X=265 $Y=-115
.ENDS
***************************************
.SUBCKT ICV_28
** N=2 EP=0 IP=5 FDC=0
.ENDS
***************************************
.SUBCKT AOI22_X1 B2 B1 VDD A1 ZN A2 VSS
** N=10 EP=7 IP=0 FDC=8
M0 9 B2 VSS VSS NMOS_VTL L=5e-08 W=4.15e-07 AD=5.81e-14 AS=4.3575e-14 PD=1.11e-06 PS=1.04e-06 $X=160 $Y=90 $D=1
M1 ZN B1 9 VSS NMOS_VTL L=5e-08 W=4.15e-07 AD=5.81e-14 AS=5.81e-14 PD=1.11e-06 PS=1.11e-06 $X=350 $Y=90 $D=1
M2 10 A1 ZN VSS NMOS_VTL L=5e-08 W=4.15e-07 AD=5.81e-14 AS=5.81e-14 PD=1.11e-06 PS=1.11e-06 $X=540 $Y=90 $D=1
M3 VSS A2 10 VSS NMOS_VTL L=5e-08 W=4.15e-07 AD=4.3575e-14 AS=5.81e-14 PD=1.04e-06 PS=1.11e-06 $X=730 $Y=90 $D=1
M4 VDD B2 8 VDD PMOS_VTL L=5e-08 W=6.3e-07 AD=8.82e-14 AS=6.615e-14 PD=1.54e-06 PS=1.47e-06 $X=160 $Y=680 $D=0
M5 8 B1 VDD VDD PMOS_VTL L=5e-08 W=6.3e-07 AD=8.82e-14 AS=8.82e-14 PD=1.54e-06 PS=1.54e-06 $X=350 $Y=680 $D=0
M6 ZN A1 8 VDD PMOS_VTL L=5e-08 W=6.3e-07 AD=8.82e-14 AS=8.82e-14 PD=1.54e-06 PS=1.54e-06 $X=540 $Y=680 $D=0
M7 8 A2 ZN VDD PMOS_VTL L=5e-08 W=6.3e-07 AD=6.615e-14 AS=8.82e-14 PD=1.47e-06 PS=1.54e-06 $X=730 $Y=680 $D=0
.ENDS
***************************************
.SUBCKT ICV_29
** N=1 EP=0 IP=2 FDC=0
.ENDS
***************************************
.SUBCKT ICV_30
** N=2 EP=0 IP=2 FDC=0
.ENDS
***************************************
.SUBCKT ICV_31
** N=2 EP=0 IP=2 FDC=0
.ENDS
***************************************
.SUBCKT ICV_32
** N=2 EP=0 IP=2 FDC=0
.ENDS
***************************************
.SUBCKT ICV_33
** N=1 EP=0 IP=2 FDC=0
.ENDS
***************************************
.SUBCKT MGC_via1_2x1_VH
** N=1 EP=0 IP=0 FDC=0
.ENDS
***************************************
.SUBCKT FA_X1 CO CI B A VDD VSS S 8
** N=20 EP=8 IP=0 FDC=28
M0 VSS 9 CO 8 NMOS_VTL L=5e-08 W=4.15e-07 AD=4.375e-14 AS=4.3575e-14 PD=1.11e-06 PS=1.04e-06 $X=170 $Y=90 $D=1
M1 18 B VSS 8 NMOS_VTL L=5e-08 W=2.1e-07 AD=2.94e-14 AS=4.375e-14 PD=7e-07 PS=1.11e-06 $X=360 $Y=215 $D=1
M2 9 A 18 8 NMOS_VTL L=5e-08 W=2.1e-07 AD=2.94e-14 AS=2.94e-14 PD=7e-07 PS=7e-07 $X=550 $Y=215 $D=1
M3 10 CI 9 8 NMOS_VTL L=5e-08 W=2.1e-07 AD=3.045e-14 AS=2.94e-14 PD=7.1e-07 PS=7e-07 $X=740 $Y=215 $D=1
M4 VSS A 10 8 NMOS_VTL L=5e-08 W=2.1e-07 AD=2.94e-14 AS=3.045e-14 PD=7e-07 PS=7.1e-07 $X=935 $Y=215 $D=1
M5 10 B VSS 8 NMOS_VTL L=5e-08 W=2.1e-07 AD=2.205e-14 AS=2.94e-14 PD=6.3e-07 PS=7e-07 $X=1125 $Y=215 $D=1
M6 12 B VSS 8 NMOS_VTL L=5e-08 W=2.1e-07 AD=2.94e-14 AS=2.205e-14 PD=7e-07 PS=6.3e-07 $X=1465 $Y=90 $D=1
M7 VSS CI 12 8 NMOS_VTL L=5e-08 W=2.1e-07 AD=2.94e-14 AS=2.94e-14 PD=7e-07 PS=7e-07 $X=1655 $Y=90 $D=1
M8 12 A VSS 8 NMOS_VTL L=5e-08 W=2.1e-07 AD=2.94e-14 AS=2.94e-14 PD=7e-07 PS=7e-07 $X=1845 $Y=90 $D=1
M9 14 9 12 8 NMOS_VTL L=5e-08 W=2.1e-07 AD=3.15e-14 AS=2.94e-14 PD=7.2e-07 PS=7e-07 $X=2035 $Y=90 $D=1
M10 19 CI 14 8 NMOS_VTL L=5e-08 W=2.1e-07 AD=2.94e-14 AS=3.15e-14 PD=7e-07 PS=7.2e-07 $X=2235 $Y=90 $D=1
M11 20 B 19 8 NMOS_VTL L=5e-08 W=2.1e-07 AD=2.94e-14 AS=2.94e-14 PD=7e-07 PS=7e-07 $X=2425 $Y=90 $D=1
M12 VSS A 20 8 NMOS_VTL L=5e-08 W=2.1e-07 AD=4.375e-14 AS=2.94e-14 PD=1.11e-06 PS=7e-07 $X=2615 $Y=90 $D=1
M13 S 14 VSS 8 NMOS_VTL L=5e-08 W=4.15e-07 AD=4.3575e-14 AS=4.375e-14 PD=1.04e-06 PS=1.11e-06 $X=2805 $Y=90 $D=1
M14 VDD 9 CO VDD PMOS_VTL L=5e-08 W=6.3e-07 AD=6.615e-14 AS=6.615e-14 PD=1.54e-06 PS=1.47e-06 $X=170 $Y=680 $D=0
M15 15 B VDD VDD PMOS_VTL L=5e-08 W=3.15e-07 AD=4.41e-14 AS=6.615e-14 PD=9.1e-07 PS=1.54e-06 $X=360 $Y=870 $D=0
M16 9 A 15 VDD PMOS_VTL L=5e-08 W=3.15e-07 AD=4.41e-14 AS=4.41e-14 PD=9.1e-07 PS=9.1e-07 $X=550 $Y=870 $D=0
M17 11 CI 9 VDD PMOS_VTL L=5e-08 W=3.15e-07 AD=4.53e-14 AS=4.41e-14 PD=1.07e-06 PS=9.1e-07 $X=740 $Y=870 $D=0
M18 VDD A 11 VDD PMOS_VTL L=5e-08 W=3.15e-07 AD=4.41e-14 AS=4.53e-14 PD=9.1e-07 PS=1.07e-06 $X=935 $Y=945 $D=0
M19 11 B VDD VDD PMOS_VTL L=5e-08 W=3.15e-07 AD=3.3075e-14 AS=4.41e-14 PD=8.4e-07 PS=9.1e-07 $X=1125 $Y=945 $D=0
M20 13 B VDD VDD PMOS_VTL L=5e-08 W=3.15e-07 AD=4.41e-14 AS=3.3075e-14 PD=9.1e-07 PS=8.4e-07 $X=1465 $Y=995 $D=0
M21 VDD CI 13 VDD PMOS_VTL L=5e-08 W=3.15e-07 AD=4.41e-14 AS=4.41e-14 PD=9.1e-07 PS=9.1e-07 $X=1655 $Y=995 $D=0
M22 13 A VDD VDD PMOS_VTL L=5e-08 W=3.15e-07 AD=4.41e-14 AS=4.41e-14 PD=9.1e-07 PS=9.1e-07 $X=1845 $Y=995 $D=0
M23 14 9 13 VDD PMOS_VTL L=5e-08 W=3.15e-07 AD=4.725e-14 AS=4.41e-14 PD=9.3e-07 PS=9.1e-07 $X=2035 $Y=995 $D=0
M24 16 CI 14 VDD PMOS_VTL L=5e-08 W=3.15e-07 AD=4.41e-14 AS=4.725e-14 PD=9.1e-07 PS=9.3e-07 $X=2235 $Y=995 $D=0
M25 17 B 16 VDD PMOS_VTL L=5e-08 W=3.15e-07 AD=4.41e-14 AS=4.41e-14 PD=9.1e-07 PS=9.1e-07 $X=2425 $Y=995 $D=0
M26 VDD A 17 VDD PMOS_VTL L=5e-08 W=3.15e-07 AD=6.615e-14 AS=4.41e-14 PD=1.54e-06 PS=9.1e-07 $X=2615 $Y=995 $D=0
M27 S 14 VDD VDD PMOS_VTL L=5e-08 W=6.3e-07 AD=6.615e-14 AS=6.615e-14 PD=1.47e-06 PS=1.54e-06 $X=2805 $Y=680 $D=0
.ENDS
***************************************
.SUBCKT ICV_34
** N=1 EP=0 IP=2 FDC=0
.ENDS
***************************************
.SUBCKT NOR4_X1 A4 VDD A3 A2 A1 ZN VSS
** N=10 EP=7 IP=0 FDC=8
M0 ZN A4 VSS VSS NMOS_VTL L=5e-08 W=4.15e-07 AD=5.81e-14 AS=4.3575e-14 PD=1.11e-06 PS=1.04e-06 $X=145 $Y=90 $D=1
M1 VSS A3 ZN VSS NMOS_VTL L=5e-08 W=4.15e-07 AD=5.81e-14 AS=5.81e-14 PD=1.11e-06 PS=1.11e-06 $X=335 $Y=90 $D=1
M2 ZN A2 VSS VSS NMOS_VTL L=5e-08 W=4.15e-07 AD=5.81e-14 AS=5.81e-14 PD=1.11e-06 PS=1.11e-06 $X=525 $Y=90 $D=1
M3 VSS A1 ZN VSS NMOS_VTL L=5e-08 W=4.15e-07 AD=4.3575e-14 AS=5.81e-14 PD=1.04e-06 PS=1.11e-06 $X=715 $Y=90 $D=1
M4 8 A4 VDD VDD PMOS_VTL L=5e-08 W=6.3e-07 AD=8.82e-14 AS=6.615e-14 PD=1.54e-06 PS=1.47e-06 $X=145 $Y=680 $D=0
M5 9 A3 8 VDD PMOS_VTL L=5e-08 W=6.3e-07 AD=8.82e-14 AS=8.82e-14 PD=1.54e-06 PS=1.54e-06 $X=335 $Y=680 $D=0
M6 10 A2 9 VDD PMOS_VTL L=5e-08 W=6.3e-07 AD=8.82e-14 AS=8.82e-14 PD=1.54e-06 PS=1.54e-06 $X=525 $Y=680 $D=0
M7 ZN A1 10 VDD PMOS_VTL L=5e-08 W=6.3e-07 AD=6.615e-14 AS=8.82e-14 PD=1.47e-06 PS=1.54e-06 $X=715 $Y=680 $D=0
.ENDS
***************************************
.SUBCKT AOI21_X1 B2 B1 ZN A VSS VDD
** N=8 EP=6 IP=0 FDC=6
M0 8 B2 VSS VSS NMOS_VTL L=5e-08 W=4.15e-07 AD=5.81e-14 AS=4.3575e-14 PD=1.11e-06 PS=1.04e-06 $X=185 $Y=90 $D=1
M1 ZN B1 8 VSS NMOS_VTL L=5e-08 W=4.15e-07 AD=5.81e-14 AS=5.81e-14 PD=1.11e-06 PS=1.11e-06 $X=375 $Y=90 $D=1
M2 VSS A ZN VSS NMOS_VTL L=5e-08 W=4.15e-07 AD=4.3575e-14 AS=5.81e-14 PD=1.04e-06 PS=1.11e-06 $X=565 $Y=90 $D=1
M3 ZN B2 7 VDD PMOS_VTL L=5e-08 W=6.3e-07 AD=8.82e-14 AS=6.615e-14 PD=1.54e-06 PS=1.47e-06 $X=185 $Y=680 $D=0
M4 7 B1 ZN VDD PMOS_VTL L=5e-08 W=6.3e-07 AD=8.82e-14 AS=8.82e-14 PD=1.54e-06 PS=1.54e-06 $X=375 $Y=680 $D=0
M5 VDD A 7 VDD PMOS_VTL L=5e-08 W=6.3e-07 AD=6.615e-14 AS=8.82e-14 PD=1.47e-06 PS=1.54e-06 $X=565 $Y=680 $D=0
.ENDS
***************************************
.SUBCKT OAI21_X1 B2 B1 ZN A VSS VDD
** N=8 EP=6 IP=0 FDC=6
M0 ZN B2 7 VSS NMOS_VTL L=5e-08 W=4.15e-07 AD=5.81e-14 AS=4.3575e-14 PD=1.11e-06 PS=1.04e-06 $X=170 $Y=90 $D=1
M1 7 B1 ZN VSS NMOS_VTL L=5e-08 W=4.15e-07 AD=5.81e-14 AS=5.81e-14 PD=1.11e-06 PS=1.11e-06 $X=360 $Y=90 $D=1
M2 VSS A 7 VSS NMOS_VTL L=5e-08 W=4.15e-07 AD=4.3575e-14 AS=5.81e-14 PD=1.04e-06 PS=1.11e-06 $X=550 $Y=90 $D=1
M3 8 B2 VDD VDD PMOS_VTL L=5e-08 W=6.3e-07 AD=8.82e-14 AS=6.615e-14 PD=1.54e-06 PS=1.47e-06 $X=170 $Y=680 $D=0
M4 ZN B1 8 VDD PMOS_VTL L=5e-08 W=6.3e-07 AD=8.82e-14 AS=8.82e-14 PD=1.54e-06 PS=1.54e-06 $X=360 $Y=680 $D=0
M5 VDD A ZN VDD PMOS_VTL L=5e-08 W=6.3e-07 AD=6.615e-14 AS=8.82e-14 PD=1.47e-06 PS=1.54e-06 $X=550 $Y=680 $D=0
.ENDS
***************************************
.SUBCKT ICV_35 1 2 3 4 5 6 7
** N=7 EP=7 IP=10 FDC=28
X1 3 4 5 6 2 1 7 1 FA_X1 $T=0 0 0 0 $X=-115 $Y=-115
.ENDS
***************************************
.SUBCKT ICV_36
** N=2 EP=0 IP=4 FDC=0
.ENDS
***************************************
.SUBCKT ICV_37
** N=1 EP=0 IP=2 FDC=0
.ENDS
***************************************
.SUBCKT INV_X1 A VSS VDD ZN
** N=4 EP=4 IP=0 FDC=2
M0 ZN A VSS VSS NMOS_VTL L=5e-08 W=4.15e-07 AD=4.3575e-14 AS=4.3575e-14 PD=1.04e-06 PS=1.04e-06 $X=145 $Y=90 $D=1
M1 ZN A VDD VDD PMOS_VTL L=5e-08 W=6.3e-07 AD=6.615e-14 AS=6.615e-14 PD=1.47e-06 PS=1.47e-06 $X=145 $Y=680 $D=0
.ENDS
***************************************
.SUBCKT OAI221_X1 B2 B1 VSS A C2 VDD C1 ZN
** N=12 EP=8 IP=0 FDC=10
M0 VSS B2 9 VSS NMOS_VTL L=5e-08 W=4.15e-07 AD=5.81e-14 AS=4.3575e-14 PD=1.11e-06 PS=1.04e-06 $X=145 $Y=90 $D=1
M1 9 B1 VSS VSS NMOS_VTL L=5e-08 W=4.15e-07 AD=5.81e-14 AS=5.81e-14 PD=1.11e-06 PS=1.11e-06 $X=335 $Y=90 $D=1
M2 10 A 9 VSS NMOS_VTL L=5e-08 W=4.15e-07 AD=5.81e-14 AS=5.81e-14 PD=1.11e-06 PS=1.11e-06 $X=525 $Y=90 $D=1
M3 ZN C2 10 VSS NMOS_VTL L=5e-08 W=4.15e-07 AD=5.81e-14 AS=5.81e-14 PD=1.11e-06 PS=1.11e-06 $X=715 $Y=90 $D=1
M4 10 C1 ZN VSS NMOS_VTL L=5e-08 W=4.15e-07 AD=4.3575e-14 AS=5.81e-14 PD=1.04e-06 PS=1.11e-06 $X=905 $Y=90 $D=1
M5 11 B2 VDD VDD PMOS_VTL L=5e-08 W=6.3e-07 AD=8.82e-14 AS=6.615e-14 PD=1.54e-06 PS=1.47e-06 $X=145 $Y=680 $D=0
M6 ZN B1 11 VDD PMOS_VTL L=5e-08 W=6.3e-07 AD=8.82e-14 AS=8.82e-14 PD=1.54e-06 PS=1.54e-06 $X=335 $Y=680 $D=0
M7 VDD A ZN VDD PMOS_VTL L=5e-08 W=6.3e-07 AD=8.82e-14 AS=8.82e-14 PD=1.54e-06 PS=1.54e-06 $X=525 $Y=680 $D=0
M8 12 C2 VDD VDD PMOS_VTL L=5e-08 W=6.3e-07 AD=8.82e-14 AS=8.82e-14 PD=1.54e-06 PS=1.54e-06 $X=715 $Y=680 $D=0
M9 ZN C1 12 VDD PMOS_VTL L=5e-08 W=6.3e-07 AD=6.615e-14 AS=8.82e-14 PD=1.47e-06 PS=1.54e-06 $X=905 $Y=680 $D=0
.ENDS
***************************************
.SUBCKT AOI211_X1 C2 C1 B VSS A ZN VDD
** N=10 EP=7 IP=0 FDC=8
M0 10 C2 VSS VSS NMOS_VTL L=5e-08 W=4.15e-07 AD=5.81e-14 AS=4.3575e-14 PD=1.11e-06 PS=1.04e-06 $X=185 $Y=90 $D=1
M1 ZN C1 10 VSS NMOS_VTL L=5e-08 W=4.15e-07 AD=5.81e-14 AS=5.81e-14 PD=1.11e-06 PS=1.11e-06 $X=375 $Y=90 $D=1
M2 VSS B ZN VSS NMOS_VTL L=5e-08 W=4.15e-07 AD=5.81e-14 AS=5.81e-14 PD=1.11e-06 PS=1.11e-06 $X=565 $Y=90 $D=1
M3 ZN A VSS VSS NMOS_VTL L=5e-08 W=4.15e-07 AD=4.3575e-14 AS=5.81e-14 PD=1.04e-06 PS=1.11e-06 $X=755 $Y=90 $D=1
M4 ZN C2 8 VDD PMOS_VTL L=5e-08 W=6.3e-07 AD=8.82e-14 AS=6.615e-14 PD=1.54e-06 PS=1.47e-06 $X=185 $Y=680 $D=0
M5 8 C1 ZN VDD PMOS_VTL L=5e-08 W=6.3e-07 AD=8.82e-14 AS=8.82e-14 PD=1.54e-06 PS=1.54e-06 $X=375 $Y=680 $D=0
M6 9 B 8 VDD PMOS_VTL L=5e-08 W=6.3e-07 AD=8.82e-14 AS=8.82e-14 PD=1.54e-06 PS=1.54e-06 $X=565 $Y=680 $D=0
M7 VDD A 9 VDD PMOS_VTL L=5e-08 W=6.3e-07 AD=6.615e-14 AS=8.82e-14 PD=1.47e-06 PS=1.54e-06 $X=755 $Y=680 $D=0
.ENDS
***************************************
.SUBCKT ICV_38
** N=1 EP=0 IP=2 FDC=0
.ENDS
***************************************
.SUBCKT ICV_39
** N=2 EP=0 IP=2 FDC=0
.ENDS
***************************************
.SUBCKT ICV_40
** N=2 EP=0 IP=2 FDC=0
.ENDS
***************************************
.SUBCKT FILLCELL_X16
** N=3 EP=0 IP=0 FDC=0
*.CALIBRE ISOLATED NETS: VSS VDD
.ENDS
***************************************
.SUBCKT ICV_41
** N=3 EP=0 IP=6 FDC=0
.ENDS
***************************************
.SUBCKT MGC_via1_1x2_VH
** N=1 EP=0 IP=0 FDC=0
.ENDS
***************************************
.SUBCKT ICV_42
** N=1 EP=0 IP=2 FDC=0
.ENDS
***************************************
.SUBCKT ICV_43
** N=2 EP=0 IP=6 FDC=0
.ENDS
***************************************
.SUBCKT MGC_via2_2x1_VH_1
** N=1 EP=0 IP=0 FDC=0
.ENDS
***************************************
.SUBCKT ICV_44
** N=2 EP=0 IP=6 FDC=0
.ENDS
***************************************
.SUBCKT ICV_45
** N=1 EP=0 IP=2 FDC=0
.ENDS
***************************************
.SUBCKT ICV_46
** N=2 EP=0 IP=2 FDC=0
.ENDS
***************************************
.SUBCKT ICV_47 1 2 3 4 5 6
** N=6 EP=6 IP=9 FDC=4
X1 3 2 4 5 1 6 NOR2_X1 $T=0 0 0 0 $X=-115 $Y=-115
.ENDS
***************************************
.SUBCKT ICV_48 1 2 3 4 5
** N=5 EP=5 IP=9 FDC=4
X1 1 2 3 4 5 1 ICV_47 $T=0 0 0 0 $X=-115 $Y=-115
.ENDS
***************************************
.SUBCKT ICV_49 1 2 3 4 5
** N=5 EP=5 IP=8 FDC=4
X1 1 2 3 4 5 ICV_23 $T=1140 0 0 0 $X=1025 $Y=-115
.ENDS
***************************************
.SUBCKT ICV_50 1 2 3 4 5
** N=5 EP=5 IP=8 FDC=16
X1 3 4 5 1 2 DLH_X1 $T=190 0 0 0 $X=75 $Y=-115
.ENDS
***************************************
.SUBCKT ICV_51
** N=2 EP=0 IP=2 FDC=0
.ENDS
***************************************
.SUBCKT ICV_52 1 2 3 4 5
** N=5 EP=5 IP=8 FDC=4
X1 1 2 3 4 5 1 ICV_47 $T=0 0 0 0 $X=-115 $Y=-115
.ENDS
***************************************
.SUBCKT ICV_53 1 2 3 4 5
** N=5 EP=5 IP=9 FDC=4
X1 3 2 4 5 1 1 NOR2_X1 $T=0 0 0 0 $X=-115 $Y=-115
.ENDS
***************************************
.SUBCKT MGC_via1_2x1_VH_1
** N=1 EP=0 IP=0 FDC=0
.ENDS
***************************************
.SUBCKT OAI222_X1 C2 C1 VSS B1 B2 A2 VDD A1 ZN
** N=14 EP=9 IP=0 FDC=12
M0 10 C2 VSS VSS NMOS_VTL L=5e-08 W=4.15e-07 AD=5.81e-14 AS=4.3575e-14 PD=1.11e-06 PS=1.04e-06 $X=155 $Y=90 $D=1
M1 VSS C1 10 VSS NMOS_VTL L=5e-08 W=4.15e-07 AD=4.3575e-14 AS=5.81e-14 PD=1.04e-06 PS=1.11e-06 $X=345 $Y=90 $D=1
M2 10 B1 11 VSS NMOS_VTL L=5e-08 W=4.15e-07 AD=5.81e-14 AS=4.3575e-14 PD=1.11e-06 PS=1.04e-06 $X=710 $Y=90 $D=1
M3 11 B2 10 VSS NMOS_VTL L=5e-08 W=4.15e-07 AD=5.81e-14 AS=5.81e-14 PD=1.11e-06 PS=1.11e-06 $X=900 $Y=90 $D=1
M4 ZN A2 11 VSS NMOS_VTL L=5e-08 W=4.15e-07 AD=5.81e-14 AS=5.81e-14 PD=1.11e-06 PS=1.11e-06 $X=1090 $Y=90 $D=1
M5 11 A1 ZN VSS NMOS_VTL L=5e-08 W=4.15e-07 AD=4.3575e-14 AS=5.81e-14 PD=1.04e-06 PS=1.11e-06 $X=1280 $Y=90 $D=1
M6 12 C2 VDD VDD PMOS_VTL L=5e-08 W=6.3e-07 AD=8.82e-14 AS=6.615e-14 PD=1.54e-06 PS=1.47e-06 $X=155 $Y=680 $D=0
M7 ZN C1 12 VDD PMOS_VTL L=5e-08 W=6.3e-07 AD=1.9845e-13 AS=8.82e-14 PD=1.89e-06 PS=1.54e-06 $X=345 $Y=680 $D=0
M8 13 B1 ZN VDD PMOS_VTL L=5e-08 W=6.3e-07 AD=8.82e-14 AS=1.9845e-13 PD=1.54e-06 PS=1.89e-06 $X=710 $Y=680 $D=0
M9 VDD B2 13 VDD PMOS_VTL L=5e-08 W=6.3e-07 AD=8.82e-14 AS=8.82e-14 PD=1.54e-06 PS=1.54e-06 $X=900 $Y=680 $D=0
M10 14 A2 VDD VDD PMOS_VTL L=5e-08 W=6.3e-07 AD=8.82e-14 AS=8.82e-14 PD=1.54e-06 PS=1.54e-06 $X=1090 $Y=680 $D=0
M11 ZN A1 14 VDD PMOS_VTL L=5e-08 W=6.3e-07 AD=6.615e-14 AS=8.82e-14 PD=1.47e-06 PS=1.54e-06 $X=1280 $Y=680 $D=0
.ENDS
***************************************
.SUBCKT ICV_54
** N=2 EP=0 IP=2 FDC=0
.ENDS
***************************************
.SUBCKT ICV_55 1 2 3 4 5 6 7
** N=7 EP=7 IP=10 FDC=32
X0 1 2 3 4 5 DLH_X1 $T=0 0 1 180 $X=-2015 $Y=-115
X1 1 6 7 4 5 DLH_X1 $T=0 0 0 0 $X=-115 $Y=-115
.ENDS
***************************************
.SUBCKT ICV_56
** N=2 EP=0 IP=6 FDC=0
.ENDS
***************************************
.SUBCKT ICV_57 1 2 3 4 5 6 7 8 9 10
** N=10 EP=10 IP=14 FDC=32
X0 1 2 3 4 5 5 NOR2_X1 $T=0 0 0 0 $X=-115 $Y=-115
X1 6 7 8 9 2 5 10 5 FA_X1 $T=570 0 0 0 $X=455 $Y=-115
.ENDS
***************************************
.SUBCKT ICV_58 1 2 3 4 5 6 7 8
** N=8 EP=8 IP=12 FDC=8
X0 1 2 3 4 5 5 NOR2_X1 $T=0 0 1 180 $X=-685 $Y=-115
X1 6 2 7 8 5 5 NOR2_X1 $T=0 0 0 0 $X=-115 $Y=-115
.ENDS
***************************************
.SUBCKT OR4_X1 A1 A2 A3 A4 VSS VDD ZN
** N=11 EP=7 IP=0 FDC=10
M0 8 A1 VSS VSS NMOS_VTL L=5e-08 W=2.1e-07 AD=2.94e-14 AS=2.205e-14 PD=7e-07 PS=6.3e-07 $X=145 $Y=90 $D=1
M1 VSS A2 8 VSS NMOS_VTL L=5e-08 W=2.1e-07 AD=2.94e-14 AS=2.94e-14 PD=7e-07 PS=7e-07 $X=335 $Y=90 $D=1
M2 8 A3 VSS VSS NMOS_VTL L=5e-08 W=2.1e-07 AD=2.94e-14 AS=2.94e-14 PD=7e-07 PS=7e-07 $X=525 $Y=90 $D=1
M3 VSS A4 8 VSS NMOS_VTL L=5e-08 W=2.1e-07 AD=4.375e-14 AS=2.94e-14 PD=1.11e-06 PS=7e-07 $X=715 $Y=90 $D=1
M4 ZN 8 VSS VSS NMOS_VTL L=5e-08 W=4.15e-07 AD=4.3575e-14 AS=4.375e-14 PD=1.04e-06 PS=1.11e-06 $X=905 $Y=90 $D=1
M5 9 A1 8 VDD PMOS_VTL L=5e-08 W=3.15e-07 AD=4.41e-14 AS=3.3075e-14 PD=9.1e-07 PS=8.4e-07 $X=145 $Y=995 $D=0
M6 10 A2 9 VDD PMOS_VTL L=5e-08 W=3.15e-07 AD=4.41e-14 AS=4.41e-14 PD=9.1e-07 PS=9.1e-07 $X=335 $Y=995 $D=0
M7 11 A3 10 VDD PMOS_VTL L=5e-08 W=3.15e-07 AD=4.41e-14 AS=4.41e-14 PD=9.1e-07 PS=9.1e-07 $X=525 $Y=995 $D=0
M8 VDD A4 11 VDD PMOS_VTL L=5e-08 W=3.15e-07 AD=6.615e-14 AS=4.41e-14 PD=1.54e-06 PS=9.1e-07 $X=715 $Y=995 $D=0
M9 ZN 8 VDD VDD PMOS_VTL L=5e-08 W=6.3e-07 AD=6.615e-14 AS=6.615e-14 PD=1.47e-06 PS=1.54e-06 $X=905 $Y=680 $D=0
.ENDS
***************************************
.SUBCKT ICV_59
** N=2 EP=0 IP=6 FDC=0
.ENDS
***************************************
.SUBCKT ICV_60
** N=2 EP=0 IP=5 FDC=0
.ENDS
***************************************
.SUBCKT ICV_61 1 2 3 4 5
** N=5 EP=5 IP=9 FDC=4
X1 3 2 4 5 1 1 NOR2_X1 $T=0 0 0 0 $X=-115 $Y=-115
.ENDS
***************************************
.SUBCKT CLKBUF_X3 A VSS VDD Z
** N=5 EP=4 IP=0 FDC=8
M0 VSS A 5 VSS NMOS_VTL L=5e-08 W=1.95e-07 AD=2.73e-14 AS=2.0475e-14 PD=6.7e-07 PS=6e-07 $X=145 $Y=90 $D=1
M1 Z 5 VSS VSS NMOS_VTL L=5e-08 W=1.95e-07 AD=2.73e-14 AS=2.73e-14 PD=6.7e-07 PS=6.7e-07 $X=335 $Y=90 $D=1
M2 VSS 5 Z VSS NMOS_VTL L=5e-08 W=1.95e-07 AD=2.73e-14 AS=2.73e-14 PD=6.7e-07 PS=6.7e-07 $X=525 $Y=90 $D=1
M3 Z 5 VSS VSS NMOS_VTL L=5e-08 W=1.95e-07 AD=2.0475e-14 AS=2.73e-14 PD=6e-07 PS=6.7e-07 $X=715 $Y=90 $D=1
M4 VDD A 5 VDD PMOS_VTL L=5e-08 W=6.3e-07 AD=8.82e-14 AS=6.615e-14 PD=1.54e-06 PS=1.47e-06 $X=145 $Y=680 $D=0
M5 Z 5 VDD VDD PMOS_VTL L=5e-08 W=6.3e-07 AD=8.82e-14 AS=8.82e-14 PD=1.54e-06 PS=1.54e-06 $X=335 $Y=680 $D=0
M6 VDD 5 Z VDD PMOS_VTL L=5e-08 W=6.3e-07 AD=8.82e-14 AS=8.82e-14 PD=1.54e-06 PS=1.54e-06 $X=525 $Y=680 $D=0
M7 Z 5 VDD VDD PMOS_VTL L=5e-08 W=6.3e-07 AD=6.615e-14 AS=8.82e-14 PD=1.47e-06 PS=1.54e-06 $X=715 $Y=680 $D=0
.ENDS
***************************************
.SUBCKT OR2_X1 A1 A2 VSS VDD ZN
** N=7 EP=5 IP=0 FDC=6
M0 6 A1 VSS VSS NMOS_VTL L=5e-08 W=2.1e-07 AD=2.94e-14 AS=2.205e-14 PD=7e-07 PS=6.3e-07 $X=145 $Y=90 $D=1
M1 VSS A2 6 VSS NMOS_VTL L=5e-08 W=2.1e-07 AD=4.375e-14 AS=2.94e-14 PD=1.11e-06 PS=7e-07 $X=335 $Y=90 $D=1
M2 ZN 6 VSS VSS NMOS_VTL L=5e-08 W=4.15e-07 AD=4.3575e-14 AS=4.375e-14 PD=1.04e-06 PS=1.11e-06 $X=525 $Y=90 $D=1
M3 7 A1 6 VDD PMOS_VTL L=5e-08 W=3.15e-07 AD=4.41e-14 AS=3.3075e-14 PD=9.1e-07 PS=8.4e-07 $X=145 $Y=995 $D=0
M4 VDD A2 7 VDD PMOS_VTL L=5e-08 W=3.15e-07 AD=6.615e-14 AS=4.41e-14 PD=1.54e-06 PS=9.1e-07 $X=335 $Y=995 $D=0